@<TRIPOS>MOLECULE
LIG
   34    39     1     0     0
SMALL
bcc


@<TRIPOS>ATOM
      1 C            4.8580    -0.9260     0.2950 ca         1 LIG      -0.127000
      2 C1           4.2870    -2.1870     0.0320 ca         1 LIG      -0.130000
      3 C2           2.9030    -2.3400    -0.1040 ca         1 LIG      -0.104000
      4 C3           2.1150    -1.2120     0.0280 cp         1 LIG      -0.035000
      5 C4           2.6950     0.0650     0.2940 cq         1 LIG      -0.028000
      6 C5           4.0610     0.2160     0.4280 ca         1 LIG      -0.106000
      7 C6           1.6000     1.0230     0.3730 cp         1 LIG      -0.032000
      8 C7           1.5300     2.3860     0.6020 ca         1 LIG      -0.087000
      9 C8           0.2610     3.0110     0.6090 ca         1 LIG      -0.121000
     10 C9          -0.9400     2.2770     0.3870 ca         1 LIG      -0.020000
     11 C10         -2.2330     2.8230     0.3790 ca         1 LIG      -0.113000
     12 C11         -3.3550     2.0060     0.1490 ca         1 LIG      -0.110000
     13 C12         -3.2200     0.6190    -0.0790 ca         1 LIG      -0.037000
     14 C13         -4.3150    -0.2270    -0.3120 ca         1 LIG      -0.102000
     15 C14         -4.1250    -1.5960    -0.5320 ca         1 LIG      -0.134000
     16 C15         -2.8400    -2.1480    -0.5260 ca         1 LIG      -0.105000
     17 C16         -1.7170    -1.3430    -0.2980 ca         1 LIG      -0.039000
     18 C17         -0.3970    -1.8710    -0.2840 ca         1 LIG      -0.065000
     19 C18          0.6730    -1.0200    -0.0530 cq         1 LIG      -0.032000
     20 C19          0.4250     0.3250     0.1590 ca         1 LIG      -0.058000
     21 C20         -0.8380     0.8980     0.1580 ca         1 LIG      -0.016000
     22 C21         -1.9330     0.0510    -0.0750 ca         1 LIG      -0.011000
     23 H            5.9380    -0.8410     0.3950 ha         1 LIG       0.132000
     24 H1           4.9340    -3.0560    -0.0660 ha         1 LIG       0.132000
     25 H2           2.4700    -3.3130    -0.3060 ha         1 LIG       0.135000
     26 H3           4.5080     1.1830     0.6300 ha         1 LIG       0.136000
     27 H4           2.4270     2.9720     0.7740 ha         1 LIG       0.136000
     28 H5           0.2070     4.0830     0.7890 ha         1 LIG       0.133000
     29 H6          -2.3780     3.8870     0.5510 ha         1 LIG       0.134000
     30 H7          -4.3420     2.4620     0.1500 ha         1 LIG       0.132000
     31 H8          -5.3260     0.1740    -0.3230 ha         1 LIG       0.135000
     32 H9          -4.9860    -2.2360    -0.7110 ha         1 LIG       0.134000
     33 H10         -2.7250    -3.2160    -0.7010 ha         1 LIG       0.134000
     34 H11         -0.2260    -2.9290    -0.4530 ha         1 LIG       0.137000
@<TRIPOS>BOND
     1     1     2 ar  
     2     2     3 ar  
     3     3     4 ar  
     4     4     5 2   
     5     5     6 1   
     6     5     7 1   
     7     7     8 ar  
     8     8     9 ar  
     9     9    10 ar  
    10    10    11 ar  
    11    11    12 ar  
    12    12    13 ar  
    13    13    14 ar  
    14    14    15 ar  
    15    15    16 ar  
    16    16    17 ar  
    17    17    18 ar  
    18    18    19 2   
    19    19    20 1   
    20    20    21 ar  
    21    21    22 ar  
    22     6     1 ar  
    23    20     7 ar  
    24    19     4 1   
    25    21    10 ar  
    26    22    13 ar  
    27    22    17 ar  
    28     1    23 1   
    29     2    24 1   
    30     3    25 1   
    31     6    26 1   
    32     8    27 1   
    33     9    28 1   
    34    11    29 1   
    35    12    30 1   
    36    14    31 1   
    37    15    32 1   
    38    16    33 1   
    39    18    34 1   
@<TRIPOS>SUBSTRUCTURE
     1 LIG         1 TEMP              0 ****  ****    0 ROOT
