@<TRIPOS>MOLECULE
LIG
   21    21     1     0     0
SMALL
bcc


@<TRIPOS>ATOM
      1 C            2.2470     0.8330     1.4920 ca         1 LIG      -0.099000
      2 C1           2.8420     1.3430     0.3340 ca         1 LIG      -0.037600
      3 Cl           4.2100     2.3850     0.5340 cl         1 LIG      -0.113400
      4 C2           2.3460     0.9920    -0.9280 ca         1 LIG       0.056400
      5 Cl1          3.0690     1.5590    -2.3920 cl         1 LIG      -0.089400
      6 C3           1.2460     0.1380    -1.0260 ca         1 LIG      -0.186000
      7 C4           0.6360    -0.3500     0.1340 ca         1 LIG       0.189100
      8 O           -0.4150    -1.2160    -0.0150 os         1 LIG      -0.306900
      9 C5          -1.6890    -0.5180     0.0450 c3         1 LIG       0.007100
     10 C6          -1.9370     0.3360    -1.2280 c          1 LIG       0.903600
     11 O1          -1.8890     1.5880    -1.0350 o          1 LIG      -0.816800
     12 O2          -2.1390    -0.2930    -2.3060 o          1 LIG      -0.816800
     13 C7          -2.7750    -1.5790     0.1600 c3         1 LIG      -0.083100
     14 C8           1.1500    -0.0240     1.3910 ca         1 LIG      -0.035600
     15 Cl2          0.4900    -0.6810     2.8460 cl         1 LIG      -0.099400
     16 H            2.6410     1.0950     2.4690 ha         1 LIG       0.145000
     17 H1           0.8400    -0.1390    -1.9970 ha         1 LIG       0.236000
     18 H2          -1.7330     0.1180     0.9390 h1         1 LIG       0.035700
     19 H3          -2.6580    -2.1390     1.0940 hc         1 LIG       0.037367
     20 H4          -2.7070    -2.3130    -0.6520 hc         1 LIG       0.037367
     21 H5          -3.7740    -1.1330     0.1430 hc         1 LIG       0.037367
@<TRIPOS>BOND
     1     1     2 ar  
     2     2     3 1   
     3     2     4 ar  
     4     4     5 1   
     5     4     6 ar  
     6     6     7 ar  
     7     7     8 1   
     8     8     9 1   
     9     9    10 1   
    10    10    11 1   
    11    10    12 1   
    12     9    13 1   
    13     7    14 ar  
    14    14    15 1   
    15    14     1 ar  
    16     1    16 1   
    17     6    17 1   
    18     9    18 1   
    19    13    19 1   
    20    13    20 1   
    21    13    21 1   
@<TRIPOS>SUBSTRUCTURE
     1 LIG         1 TEMP              0 ****  ****    0 ROOT
