@<TRIPOS>MOLECULE
LIG
   30    29     1     0     0
SMALL
bcc


@<TRIPOS>ATOM
      1 C            1.0790     0.1450     1.2810 c3         1 LIG       0.126800
      2 S            2.6460     0.3450     2.1770 ss         1 LIG      -0.024200
      3 C1           3.7760    -0.3890     0.9520 c3         1 LIG      -0.056300
      4 C2           4.1780     0.6310    -0.1040 c3         1 LIG      -0.094100
      5 S1          -0.2940     0.7900     2.2570 ss         1 LIG      -0.347500
      6 P           -1.9470     0.1990     1.0990 p5         1 LIG       0.670200
      7 S2          -3.7470     0.5330     1.7750 s          1 LIG      -0.472000
      8 O           -1.6890     0.8050    -0.3930 os         1 LIG      -0.474200
      9 C3          -1.8840     2.1940    -0.6110 c3         1 LIG       0.130400
     10 C4          -0.9690     2.6350    -1.7360 c3         1 LIG      -0.106600
     11 O1          -1.6770    -1.3760     0.7790 os         1 LIG      -0.474200
     12 C5          -2.5330    -2.0720    -0.1150 c3         1 LIG       0.130400
     13 C6          -1.8440    -3.3660    -0.5130 c3         1 LIG      -0.106600
     14 H            1.1180     0.6810     0.3270 h2         1 LIG       0.106200
     15 H1           0.9130    -0.9190     1.0850 h2         1 LIG       0.106200
     16 H2           4.6710    -0.7340     1.4860 h1         1 LIG       0.077700
     17 H3           3.3070    -1.2700     0.4920 h1         1 LIG       0.077700
     18 H4           4.7100     1.4830     0.3490 hc         1 LIG       0.051700
     19 H5           3.3140     1.0150    -0.6620 hc         1 LIG       0.051700
     20 H6           4.8580     0.1650    -0.8280 hc         1 LIG       0.051700
     21 H7          -2.9290     2.3630    -0.8880 h1         1 LIG       0.067950
     22 H8          -1.6660     2.7670     0.2980 h1         1 LIG       0.067950
     23 H9          -1.1280     3.6920    -1.9750 hc         1 LIG       0.050533
     24 H10         -1.1470     2.0340    -2.6360 hc         1 LIG       0.050533
     25 H11          0.0820     2.4930    -1.4550 hc         1 LIG       0.050533
     26 H12         -3.4760    -2.3030     0.3910 h1         1 LIG       0.067950
     27 H13         -2.7370    -1.4660    -1.0070 h1         1 LIG       0.067950
     28 H14         -2.4800    -3.9550    -1.1840 hc         1 LIG       0.050533
     29 H15         -1.6120    -3.9680     0.3740 hc         1 LIG       0.050533
     30 H16         -0.8920    -3.1540    -1.0160 hc         1 LIG       0.050533
@<TRIPOS>BOND
     1     1     2 1   
     2     2     3 1   
     3     3     4 1   
     4     1     5 1   
     5     5     6 1   
     6     6     7 2   
     7     6     8 1   
     8     8     9 1   
     9     9    10 1   
    10     6    11 1   
    11    11    12 1   
    12    12    13 1   
    13     1    14 1   
    14     1    15 1   
    15     3    16 1   
    16     3    17 1   
    17     4    18 1   
    18     4    19 1   
    19     4    20 1   
    20     9    21 1   
    21     9    22 1   
    22    10    23 1   
    23    10    24 1   
    24    10    25 1   
    25    12    26 1   
    26    12    27 1   
    27    13    28 1   
    28    13    29 1   
    29    13    30 1   
@<TRIPOS>SUBSTRUCTURE
     1 LIG         1 TEMP              0 ****  ****    0 ROOT
