@<TRIPOS>MOLECULE
LIG
   10    10     1     0     0
SMALL
USER_CHARGES

@<TRIPOS>ATOM
      1 C1         1.2000     0.0000     0.0000 c3       1 LIG   0.000000
      2 C2         0.9623     0.8440     0.1515 c3       1 LIG   0.000000
      3 O3         0.1774     1.3484     0.1637 oh       1 LIG   0.000000
      4 C4        -0.8002     1.1972     0.0254 c3       1 LIG   0.000000
      5 C5        -1.4683     0.3931    -0.1362 c3       1 LIG   0.000000
      6 N6        -1.4348    -0.7080    -0.1726 n3       1 LIG   0.000000
      7 C7        -0.6424    -1.5523    -0.0503 c3       1 LIG   0.000000
      8 C8         0.5663    -1.6664     0.1183 c3       1 LIG   0.000000
      9 C9         1.5939    -0.9193     0.1781 c3       1 LIG   0.000000
     10 C10        1.8829     0.3754     0.0742 c3       1 LIG   0.000000
@<TRIPOS>BOND
     1     1     2 1
     2     2     3 1
     3     3     4 1
     4     4     5 1
     5     5     6 1
     6     6     7 1
     7     7     8 1
     8     8     9 1
     9     9    10 1
    10     1     6 1
@<TRIPOS>SUBSTRUCTURE
     1 LIG         1 TEMP              0 ****  ****    0 ROOT
