@<TRIPOS>MOLECULE
LIG
   18    17     1     0     0
SMALL
bcc


@<TRIPOS>ATOM
      1 C            1.8130    -1.1310     0.0870 c3         1 LIG       0.117700
      2 O            1.1470    -0.0810    -0.5980 os         1 LIG      -0.421600
      3 C1          -0.1770     0.2500    -0.1520 c3         1 LIG       0.147800
      4 C2          -1.1410    -0.9290    -0.3270 c3         1 LIG      -0.107100
      5 C3          -0.1760     0.7430     1.3000 c3         1 LIG      -0.107100
      6 C4          -0.6300     1.3990    -1.0640 c3         1 LIG      -0.107100
      7 H            1.9630    -0.8880     1.1410 h1         1 LIG       0.030700
      8 H1           2.7990    -1.2560    -0.3700 h1         1 LIG       0.030700
      9 H2           1.2760    -2.0780    -0.0170 h1         1 LIG       0.030700
     10 H3          -0.9120    -1.7430     0.3680 hc         1 LIG       0.042922
     11 H4          -1.0690    -1.3450    -1.3380 hc         1 LIG       0.042922
     12 H5          -2.1790    -0.6270    -0.1480 hc         1 LIG       0.042922
     13 H6           0.5840     1.5180     1.4490 hc         1 LIG       0.042922
     14 H7          -1.1510     1.1520     1.5840 hc         1 LIG       0.042922
     15 H8           0.0560    -0.0680     2.0000 hc         1 LIG       0.042922
     16 H9          -1.6400     1.7420    -0.8160 hc         1 LIG       0.042922
     17 H10          0.0540     2.2530    -0.9840 hc         1 LIG       0.042922
     18 H11         -0.6180     1.0900    -2.1150 hc         1 LIG       0.042922
@<TRIPOS>BOND
     1     1     2 1   
     2     2     3 1   
     3     3     4 1   
     4     3     5 1   
     5     3     6 1   
     6     1     7 1   
     7     1     8 1   
     8     1     9 1   
     9     4    10 1   
    10     4    11 1   
    11     4    12 1   
    12     5    13 1   
    13     5    14 1   
    14     5    15 1   
    15     6    16 1   
    16     6    17 1   
    17     6    18 1   
@<TRIPOS>SUBSTRUCTURE
     1 LIG         1 TEMP              0 ****  ****    0 ROOT
