@<TRIPOS>MOLECULE
LIG
    7     6     1     0     0
SMALL
bcc


@<TRIPOS>ATOM
      1 C           -0.5550     0.0850     0.1460 c3         1 LIG       0.036100
      2 Cl          -1.0420     1.7590    -0.2050 cl         1 LIG      -0.216400
      3 Br          -1.4840    -1.1340    -1.0650 br         1 LIG      -0.236400
      4 C1           0.9630    -0.1270     0.0120 c          1 LIG       0.932600
      5 O            1.5170    -0.6180     1.0450 o          1 LIG      -0.795300
      6 O1           1.5070     0.1990    -1.0830 o          1 LIG      -0.795300
      7 H           -0.9060    -0.1640     1.1510 h2         1 LIG       0.074700
@<TRIPOS>BOND
     1     1     2 1   
     2     1     3 1   
     3     1     4 1   
     4     4     5 1   
     5     4     6 1   
     6     1     7 1   
@<TRIPOS>SUBSTRUCTURE
     1 LIG         1 TEMP              0 ****  ****    0 ROOT
