@<TRIPOS>MOLECULE
LIG
   23    25     1     0     0
SMALL
bcc


@<TRIPOS>ATOM
      1 C            2.9550     1.3110     0.2350 ca         1 LIG      -0.133000
      2 C1           3.4400     0.0320    -0.0880 ca         1 LIG      -0.126000
      3 C2           2.5610    -1.0280    -0.3210 ca         1 LIG      -0.118000
      4 C3           1.2020    -0.7780    -0.2220 ca         1 LIG      -0.084300
      5 C4           0.7080     0.5050     0.1030 cp         1 LIG      -0.041000
      6 C5           1.5810     1.5550     0.3330 ca         1 LIG      -0.104000
      7 C6          -0.7390     0.4520     0.1300 cp         1 LIG      -0.041000
      8 C7          -1.6750     1.4370     0.3960 ca         1 LIG      -0.104000
      9 C8          -3.0310     1.0940     0.3500 ca         1 LIG      -0.133000
     10 C9          -3.4340    -0.2170     0.0430 ca         1 LIG      -0.126000
     11 C10         -2.4900    -1.2100    -0.2240 ca         1 LIG      -0.118000
     12 C11         -1.1510    -0.8630    -0.1770 ca         1 LIG      -0.084300
     13 C12          0.0550    -1.7470    -0.4250 c3         1 LIG       0.005200
     14 H            3.6580     2.1220     0.4120 ha         1 LIG       0.131000
     15 H1           4.5130    -0.1320    -0.1580 ha         1 LIG       0.131000
     16 H2           2.9360    -2.0140    -0.5710 ha         1 LIG       0.134000
     17 H3           1.2170     2.5450     0.5840 ha         1 LIG       0.135000
     18 H4          -1.3750     2.4510     0.6330 ha         1 LIG       0.135000
     19 H5          -3.7840     1.8520     0.5550 ha         1 LIG       0.131000
     20 H6          -4.4940    -0.4580     0.0150 ha         1 LIG       0.131000
     21 H7          -2.8020    -2.2220    -0.4610 ha         1 LIG       0.134000
     22 H8           0.0490    -2.1300    -1.4500 hc         1 LIG       0.072700
     23 H9           0.0990    -2.5570     0.3080 hc         1 LIG       0.072700
@<TRIPOS>BOND
     1     1     2 ar  
     2     2     3 ar  
     3     3     4 ar  
     4     4     5 ar  
     5     5     6 ar  
     6     5     7 1   
     7     7     8 ar  
     8     8     9 ar  
     9     9    10 ar  
    10    10    11 ar  
    11    11    12 ar  
    12    12    13 1   
    13     6     1 ar  
    14    12     7 ar  
    15    13     4 1   
    16     1    14 1   
    17     2    15 1   
    18     3    16 1   
    19     6    17 1   
    20     8    18 1   
    21     9    19 1   
    22    10    20 1   
    23    11    21 1   
    24    13    22 1   
    25    13    23 1   
@<TRIPOS>SUBSTRUCTURE
     1 LIG         1 TEMP              0 ****  ****    0 ROOT
