@<TRIPOS>MOLECULE
LIG
   30    33     1     0     0
SMALL
bcc


@<TRIPOS>ATOM
      1 C           -4.6900     0.0220    -0.0700 ca         1 LIG      -0.127000
      2 C1          -4.1740     1.2980     0.0850 ca         1 LIG      -0.128000
      3 C2          -2.7880     1.4920     0.1070 ca         1 LIG      -0.118000
      4 C3          -1.8640     0.4210    -0.0250 ca         1 LIG      -0.019000
      5 C4          -2.4250    -0.8680    -0.1820 ca         1 LIG      -0.037000
      6 C5          -3.8190    -1.0550    -0.2030 ca         1 LIG      -0.117000
      7 C6          -1.5890    -1.9710    -0.3170 ca         1 LIG      -0.117000
      8 C7          -0.2030    -1.8220    -0.3000 ca         1 LIG      -0.117000
      9 C8           0.4250    -0.5680    -0.1480 ca         1 LIG      -0.018000
     10 C9           1.8640    -0.4210    -0.1310 ca         1 LIG      -0.019000
     11 C10          2.7880    -1.4920    -0.2630 ca         1 LIG      -0.118000
     12 C11          4.1740    -1.2980    -0.2400 ca         1 LIG      -0.128000
     13 C12          4.6900    -0.0220    -0.0850 ca         1 LIG      -0.127000
     14 C13          3.8190     1.0550     0.0470 ca         1 LIG      -0.117000
     15 C14          2.4250     0.8680     0.0260 ca         1 LIG      -0.037000
     16 C15          1.5890     1.9710     0.1620 ca         1 LIG      -0.117000
     17 C16          0.2030     1.8220     0.1450 ca         1 LIG      -0.117000
     18 C17         -0.4250     0.5680    -0.0080 ca         1 LIG      -0.018000
     19 H           -5.7640    -0.1380    -0.0890 ha         1 LIG       0.133000
     20 H1          -4.8420     2.1490     0.1900 ha         1 LIG       0.132000
     21 H2          -2.4440     2.5140     0.2320 ha         1 LIG       0.132000
     22 H3          -4.2390    -2.0510    -0.3240 ha         1 LIG       0.133000
     23 H4          -2.0030    -2.9700    -0.4390 ha         1 LIG       0.134000
     24 H5           0.3800    -2.7320    -0.4120 ha         1 LIG       0.133000
     25 H6           2.4440    -2.5140    -0.3870 ha         1 LIG       0.132000
     26 H7           4.8420    -2.1490    -0.3450 ha         1 LIG       0.132000
     27 H8           5.7640     0.1380    -0.0670 ha         1 LIG       0.133000
     28 H9           4.2390     2.0510     0.1690 ha         1 LIG       0.133000
     29 H10          2.0030     2.9700     0.2830 ha         1 LIG       0.134000
     30 H11         -0.3800     2.7320     0.2560 ha         1 LIG       0.133000
@<TRIPOS>BOND
     1     1     2 ar  
     2     2     3 ar  
     3     3     4 ar  
     4     4     5 ar  
     5     5     6 ar  
     6     5     7 ar  
     7     7     8 ar  
     8     8     9 ar  
     9     9    10 ar  
    10    10    11 ar  
    11    11    12 ar  
    12    12    13 ar  
    13    13    14 ar  
    14    14    15 ar  
    15    15    16 ar  
    16    16    17 ar  
    17    17    18 ar  
    18     6     1 ar  
    19    18     9 ar  
    20    18     4 ar  
    21    15    10 ar  
    22     1    19 1   
    23     2    20 1   
    24     3    21 1   
    25     6    22 1   
    26     7    23 1   
    27     8    24 1   
    28    11    25 1   
    29    12    26 1   
    30    13    27 1   
    31    14    28 1   
    32    16    29 1   
    33    17    30 1   
@<TRIPOS>SUBSTRUCTURE
     1 LIG         1 TEMP              0 ****  ****    0 ROOT
