@<TRIPOS>MOLECULE
LIG
   46    49     1     0     0
SMALL
bcc


@<TRIPOS>ATOM
      1 C           -4.0090    -2.8250    -0.1250 c1         1 LIG      -0.137500
      2 C1          -3.7610    -1.6840     0.1580 c1         1 LIG      -0.164100
      3 C2          -3.4750    -0.2750     0.5090 c3         1 LIG       0.233900
      4 O           -4.3120     0.0810     1.6010 oh         1 LIG      -0.580800
      5 C3          -3.7620     0.6460    -0.7060 c3         1 LIG      -0.103400
      6 C4          -2.4000     0.9480    -1.3660 c3         1 LIG      -0.068400
      7 C5          -1.4010     0.0700    -0.6160 c3         1 LIG      -0.067700
      8 C6           0.0800     0.4560    -0.6410 c3         1 LIG      -0.047700
      9 C7           0.6350     0.5500    -2.0640 c3         1 LIG      -0.073400
     10 C8           2.0650     1.0820    -2.0290 c3         1 LIG      -0.037100
     11 C9           2.9320     0.4430    -0.9720 ca         1 LIG      -0.037300
     12 C10          4.3170     0.6720    -1.0360 ca         1 LIG      -0.162000
     13 C11          5.1650     0.1280    -0.0830 ca         1 LIG       0.122100
     14 O1           6.5000     0.3800    -0.1980 oh         1 LIG      -0.499100
     15 C12          4.6600    -0.6510     0.9470 ca         1 LIG      -0.215000
     16 C13          3.2830    -0.8780     1.0250 ca         1 LIG      -0.091000
     17 C14          2.3940    -0.3220     0.0870 ca         1 LIG      -0.099300
     18 C15          0.8950    -0.6100     0.1500 c3         1 LIG      -0.009400
     19 C16          0.3240    -0.8060     1.5800 c3         1 LIG      -0.071400
     20 C17         -1.1970    -1.0590     1.6020 c3         1 LIG      -0.066400
     21 C18         -1.9750     0.0130     0.8170 c3         1 LIG      -0.027000
     22 C19         -1.8580     1.3590     1.5920 c3         1 LIG      -0.079100
     23 H           -4.2270    -3.8390    -0.3710 ha         1 LIG       0.165500
     24 H1          -5.2210    -0.1600     1.3500 ho         1 LIG       0.404000
     25 H2          -4.2370     1.5840    -0.3940 hc         1 LIG       0.054200
     26 H3          -4.4420     0.1800    -1.4290 hc         1 LIG       0.054200
     27 H4          -2.1570     2.0110    -1.2640 hc         1 LIG       0.046200
     28 H5          -2.4210     0.7150    -2.4360 hc         1 LIG       0.046200
     29 H6          -1.4690    -0.9320    -1.0690 hc         1 LIG       0.053700
     30 H7           0.2100     1.4410    -0.1730 hc         1 LIG       0.062700
     31 H8           0.0270     1.2160    -2.6860 hc         1 LIG       0.044700
     32 H9           0.6160    -0.4380    -2.5420 hc         1 LIG       0.044700
     33 H10          2.5170     0.9370    -3.0180 hc         1 LIG       0.052700
     34 H11          2.0390     2.1620    -1.8340 hc         1 LIG       0.052700
     35 H12          4.7380     1.2780    -1.8350 ha         1 LIG       0.148000
     36 H13          6.9590    -0.0580     0.5370 ho         1 LIG       0.418000
     37 H14          5.3130    -1.0930     1.6920 ha         1 LIG       0.132000
     38 H15          2.9230    -1.5080     1.8330 ha         1 LIG       0.134000
     39 H16          0.7700    -1.5750    -0.3660 hc         1 LIG       0.055700
     40 H17          0.5730     0.0610     2.2030 hc         1 LIG       0.043200
     41 H18          0.7960    -1.6700     2.0610 hc         1 LIG       0.043200
     42 H19         -1.5470    -1.1060     2.6400 hc         1 LIG       0.049700
     43 H20         -1.3660    -2.0540     1.1740 hc         1 LIG       0.049700
     44 H21         -0.8250     1.7000     1.7040 hc         1 LIG       0.042367
     45 H22         -2.2640     1.2570     2.6050 hc         1 LIG       0.042367
     46 H23         -2.4050     2.1730     1.1060 hc         1 LIG       0.042367
@<TRIPOS>BOND
     1     1     2 3   
     2     3     2 1   
     3     3     4 1   
     4     3     5 1   
     5     5     6 1   
     6     6     7 1   
     7     7     8 1   
     8     8     9 1   
     9     9    10 1   
    10    10    11 1   
    11    11    12 ar  
    12    12    13 ar  
    13    13    14 1   
    14    13    15 ar  
    15    15    16 ar  
    16    16    17 ar  
    17    17    18 1   
    18    18    19 1   
    19    19    20 1   
    20    20    21 1   
    21    21    22 1   
    22    21     3 1   
    23    21     7 1   
    24    18     8 1   
    25    17    11 ar  
    26     1    23 1   
    27     4    24 1   
    28     5    25 1   
    29     5    26 1   
    30     6    27 1   
    31     6    28 1   
    32     7    29 1   
    33     8    30 1   
    34     9    31 1   
    35     9    32 1   
    36    10    33 1   
    37    10    34 1   
    38    12    35 1   
    39    14    36 1   
    40    15    37 1   
    41    16    38 1   
    42    18    39 1   
    43    19    40 1   
    44    19    41 1   
    45    20    42 1   
    46    20    43 1   
    47    22    44 1   
    48    22    45 1   
    49    22    46 1   
@<TRIPOS>SUBSTRUCTURE
     1 LIG         1 TEMP              0 ****  ****    0 ROOT
