@<TRIPOS>MOLECULE
LIG
   14    14     1     0     0
SMALL
bcc


@<TRIPOS>ATOM
      1 C           -0.5540    -1.2810    -0.1360 c3         1 LIG       0.091400
      2 O            0.8090    -1.1370     0.2900 os         1 LIG      -0.412600
      3 C1           1.3750     0.0570    -0.2700 c3         1 LIG       0.091400
      4 C2           0.5540     1.2810     0.1360 c3         1 LIG       0.091400
      5 O1          -0.8090     1.1370    -0.2900 os         1 LIG      -0.412600
      6 C3          -1.3750    -0.0570     0.2700 c3         1 LIG       0.091400
      7 H           -0.9610    -2.1840     0.3280 h1         1 LIG       0.057200
      8 H1          -0.5660    -1.4170    -1.2240 h1         1 LIG       0.057200
      9 H2           2.4020     0.1480     0.0950 h1         1 LIG       0.057200
     10 H3           1.4040    -0.0500    -1.3600 h1         1 LIG       0.057200
     11 H4           0.9610     2.1840    -0.3280 h1         1 LIG       0.057200
     12 H5           0.5660     1.4170     1.2240 h1         1 LIG       0.057200
     13 H6          -2.4020    -0.1480    -0.0950 h1         1 LIG       0.057200
     14 H7          -1.4040     0.0500     1.3600 h1         1 LIG       0.057200
@<TRIPOS>BOND
     1     1     2 1   
     2     2     3 1   
     3     3     4 1   
     4     4     5 1   
     5     5     6 1   
     6     6     1 1   
     7     1     7 1   
     8     1     8 1   
     9     3     9 1   
    10     3    10 1   
    11     4    11 1   
    12     4    12 1   
    13     6    13 1   
    14     6    14 1   
@<TRIPOS>SUBSTRUCTURE
     1 LIG         1 TEMP              0 ****  ****    0 ROOT
