@<TRIPOS>MOLECULE
LIG
    8     7     1     0     0
SMALL
bcc


@<TRIPOS>ATOM
      1 C           -0.7160    -0.2180     0.1890 c3         1 LIG      -0.020000
      2 Br          -1.7000     1.4570     0.0180 br         1 LIG      -0.148400
      3 C1           0.7010    -0.0720    -0.3150 c3         1 LIG      -0.020000
      4 Br1          1.8200     0.8530     0.9890 br         1 LIG      -0.148400
      5 H           -0.7760    -0.5180     1.2380 h1         1 LIG       0.084200
      6 H1          -1.2700    -0.9360    -0.4220 h1         1 LIG       0.084200
      7 H2           0.7740     0.4870    -1.2520 h1         1 LIG       0.084200
      8 H3           1.1670    -1.0520    -0.4450 h1         1 LIG       0.084200
@<TRIPOS>BOND
     1     1     2 1   
     2     1     3 1   
     3     3     4 1   
     4     1     5 1   
     5     1     6 1   
     6     3     7 1   
     7     3     8 1   
@<TRIPOS>SUBSTRUCTURE
     1 LIG         1 TEMP              0 ****  ****    0 ROOT
