@<TRIPOS>MOLECULE
LIG
   29    29     1     0     0
SMALL
bcc


@<TRIPOS>ATOM
      1 C            3.9040     0.4880    -0.1970 ca         1 LIG      -0.051000
      2 C1           4.0220    -0.8420    -0.5970 ca         1 LIG      -0.117900
      3 Cl           5.5940    -1.4860    -0.8790 cl         1 LIG      -0.030400
      4 C2           2.8540    -1.5830    -0.7420 ca         1 LIG       0.554300
      5 Cl1          2.8360    -3.2390    -1.2050 cl         1 LIG      -0.092000
      6 N            1.6090    -1.0930    -0.5180 nb         1 LIG      -0.773000
      7 C3           1.5260     0.1970    -0.1430 ca         1 LIG       0.677600
      8 O            0.2840     0.7130     0.0960 os         1 LIG      -0.526700
      9 P           -1.0750     0.1090    -0.5270 p5         1 LIG       1.235200
     10 S           -1.1630    -0.3120    -2.4240 s          1 LIG      -0.586000
     11 O1          -2.1130     1.2830    -0.0890 os         1 LIG      -0.516200
     12 C4          -1.9900     2.5650    -0.6830 c3         1 LIG       0.145400
     13 C5          -2.6670     3.5790     0.2160 c3         1 LIG      -0.106100
     14 O2          -1.5420    -1.0180     0.5340 os         1 LIG      -0.516200
     15 C6          -0.9340    -2.2940     0.5570 c3         1 LIG       0.145400
     16 C7          -1.9140    -3.2810     1.1610 c3         1 LIG      -0.106100
     17 C8           2.6370     1.0180     0.0380 ca         1 LIG      -0.090900
     18 Cl2          2.4890     2.6620     0.5270 cl         1 LIG      -0.021400
     19 H            4.7900     1.1050    -0.0690 ha         1 LIG       0.178000
     20 H1          -0.9360     2.8280    -0.8130 h1         1 LIG       0.069700
     21 H2          -2.4750     2.5530    -1.6630 h1         1 LIG       0.069700
     22 H3          -2.6030     4.5830    -0.2120 hc         1 LIG       0.053367
     23 H4          -2.2010     3.5870     1.2070 hc         1 LIG       0.053367
     24 H5          -3.7220     3.3230     0.3610 hc         1 LIG       0.053367
     25 H6          -0.6640    -2.6200    -0.4510 h1         1 LIG       0.069700
     26 H7          -0.0350    -2.2470     1.1770 h1         1 LIG       0.069700
     27 H8          -2.8320    -3.3250     0.5670 hc         1 LIG       0.053367
     28 H9          -1.4770    -4.2820     1.2120 hc         1 LIG       0.053367
     29 H10         -2.2020    -2.9700     2.1710 hc         1 LIG       0.053367
@<TRIPOS>BOND
     1     1     2 ar  
     2     2     3 1   
     3     2     4 ar  
     4     4     5 1   
     5     4     6 ar  
     6     6     7 ar  
     7     7     8 1   
     8     8     9 1   
     9     9    10 2   
    10     9    11 1   
    11    11    12 1   
    12    12    13 1   
    13     9    14 1   
    14    14    15 1   
    15    15    16 1   
    16     7    17 ar  
    17    17    18 1   
    18    17     1 ar  
    19     1    19 1   
    20    12    20 1   
    21    12    21 1   
    22    13    22 1   
    23    13    23 1   
    24    13    24 1   
    25    15    25 1   
    26    15    26 1   
    27    16    27 1   
    28    16    28 1   
    29    16    29 1   
@<TRIPOS>SUBSTRUCTURE
     1 LIG         1 TEMP              0 ****  ****    0 ROOT
