@<TRIPOS>MOLECULE
LIG
   13    13     1     0     0
SMALL
bcc


@<TRIPOS>ATOM
      1 C            0.2760    -1.2040     0.3200 ca         1 LIG       0.014000
      2 C1          -1.1160    -1.0170     0.2660 ca         1 LIG      -0.199900
      3 Br          -2.1590    -2.5780     0.6770 br         1 LIG      -0.162100
      4 C2          -1.7300     0.2240    -0.0640 ca         1 LIG       0.603700
      5 O           -3.0000     0.3880    -0.1100 o          1 LIG      -0.689700
      6 C3          -0.7980     1.2650    -0.3370 ca         1 LIG      -0.199900
      7 Br1         -1.3790     3.0350    -0.8070 br         1 LIG      -0.162100
      8 C4           0.5950     1.0920    -0.2870 ca         1 LIG       0.014000
      9 C5           1.1310    -0.1460     0.0420 ca         1 LIG      -0.246000
     10 C6           2.5500    -0.3290     0.0940 cg         1 LIG       0.301800
     11 N            3.7010    -0.4780     0.1360 n1         1 LIG      -0.502800
     12 H            0.6790    -2.1800     0.5790 ha         1 LIG       0.115000
     13 H1           1.2500     1.9300    -0.5080 ha         1 LIG       0.115000
@<TRIPOS>BOND
     1     1     2 ar  
     2     2     3 1   
     3     2     4 ar  
     4     4     5 1   
     5     4     6 ar  
     6     6     7 1   
     7     6     8 ar  
     8     8     9 ar  
     9     9    10 1   
    10    10    11 3   
    11     9     1 ar  
    12     1    12 1   
    13     8    13 1   
@<TRIPOS>SUBSTRUCTURE
     1 LIG         1 TEMP              0 ****  ****    0 ROOT
