@<TRIPOS>MOLECULE
LIG
   38    39     1     0     0
SMALL
bcc


@<TRIPOS>ATOM
      1 C            4.0370    -1.5340    -1.4620 c3         1 LIG       0.154600
      2 N            3.6480    -0.3790    -0.6410 nh         1 LIG      -0.689600
      3 C1           2.2840    -0.1680    -0.4760 cc         1 LIG       0.688800
      4 N1           1.4880    -1.1770    -0.3740 nd         1 LIG      -0.703100
      5 C2           0.1520    -1.0010    -0.1790 c          1 LIG       0.841900
      6 O           -0.5590    -1.9800     0.0340 o          1 LIG      -0.580500
      7 N2          -0.3640     0.2790    -0.2100 n          1 LIG      -0.502400
      8 C3          -1.8060     0.5000     0.0060 c3         1 LIG       0.114700
      9 C4          -2.7130    -0.2670    -0.9830 c3         1 LIG      -0.083900
     10 C5          -3.6880    -1.2210    -0.2980 c3         1 LIG      -0.077400
     11 C6          -4.5120    -0.5280     0.7840 c3         1 LIG      -0.076400
     12 C7          -3.7060     0.4250     1.6670 c3         1 LIG      -0.077400
     13 C8          -2.1990     0.2860     1.4790 c3         1 LIG      -0.083900
     14 C9           0.4740     1.3710    -0.2000 c          1 LIG       0.806500
     15 O1           0.0640     2.5170     0.0120 o          1 LIG      -0.632500
     16 N3           1.8110     1.1210    -0.4210 n          1 LIG      -0.403300
     17 C10          2.6870     2.2730    -0.5730 c3         1 LIG       0.083300
     18 C11          4.4670    -0.2810     0.5740 c3         1 LIG       0.154600
     19 H            5.1020    -1.4790    -1.7120 h1         1 LIG       0.051867
     20 H1           3.4810    -1.5370    -2.4050 h1         1 LIG       0.051867
     21 H2           3.8500    -2.4770    -0.9370 h1         1 LIG       0.051867
     22 H3          -2.0030     1.5600    -0.2070 h1         1 LIG       0.085700
     23 H4          -3.3030     0.4680    -1.5480 hc         1 LIG       0.052700
     24 H5          -2.1290    -0.8070    -1.7370 hc         1 LIG       0.052700
     25 H6          -3.1360    -2.0560     0.1490 hc         1 LIG       0.047950
     26 H7          -4.3600    -1.6630    -1.0430 hc         1 LIG       0.047950
     27 H8          -4.9900    -1.2930     1.4080 hc         1 LIG       0.037700
     28 H9          -5.3310     0.0330     0.3160 hc         1 LIG       0.037700
     29 H10         -3.9670     0.2630     2.7190 hc         1 LIG       0.047950
     30 H11         -3.9990     1.4580     1.4370 hc         1 LIG       0.047950
     31 H12         -1.6810     1.0180     2.1100 hc         1 LIG       0.052700
     32 H13         -1.8800    -0.7010     1.8360 hc         1 LIG       0.052700
     33 H14          3.5910     2.0270    -1.1340 h1         1 LIG       0.063367
     34 H15          2.9640     2.6290     0.4240 h1         1 LIG       0.063367
     35 H16          2.1680     3.0820    -1.0990 h1         1 LIG       0.063367
     36 H17          4.2330     0.6260     1.1400 h1         1 LIG       0.051867
     37 H18          4.2970    -1.1450     1.2270 h1         1 LIG       0.051867
     38 H19          5.5300    -0.2410     0.3150 h1         1 LIG       0.051867
@<TRIPOS>BOND
     1     1     2 1   
     2     2     3 1   
     3     3     4 2   
     4     4     5 1   
     5     5     6 2   
     6     5     7 1   
     7     7     8 1   
     8     8     9 1   
     9     9    10 1   
    10    10    11 1   
    11    11    12 1   
    12    12    13 1   
    13     7    14 1   
    14    14    15 2   
    15    14    16 1   
    16    16    17 1   
    17     2    18 1   
    18    16     3 1   
    19    13     8 1   
    20     1    19 1   
    21     1    20 1   
    22     1    21 1   
    23     8    22 1   
    24     9    23 1   
    25     9    24 1   
    26    10    25 1   
    27    10    26 1   
    28    11    27 1   
    29    11    28 1   
    30    12    29 1   
    31    12    30 1   
    32    13    31 1   
    33    13    32 1   
    34    17    33 1   
    35    17    34 1   
    36    17    35 1   
    37    18    36 1   
    38    18    37 1   
    39    18    38 1   
@<TRIPOS>SUBSTRUCTURE
     1 LIG         1 TEMP              0 ****  ****    0 ROOT
