@<TRIPOS>MOLECULE
LIG
   34    39     1     0     0
SMALL
bcc


@<TRIPOS>ATOM
      1 C            2.5830     2.9930    -0.4360 ca         1 LIG      -0.128000
      2 C1           3.3760     1.8600    -0.3400 ca         1 LIG      -0.114000
      3 C2           2.7890     0.5960    -0.2430 ca         1 LIG      -0.034000
      4 C3           3.5950    -0.5430    -0.1460 ca         1 LIG      -0.114000
      5 C4           3.0260    -1.8100    -0.0480 ca         1 LIG      -0.115000
      6 C5           1.6370    -1.9650    -0.0450 ca         1 LIG      -0.031000
      7 C6           1.0650    -3.2380     0.0530 ca         1 LIG      -0.114000
      8 C7          -0.3190    -3.3930     0.0560 ca         1 LIG      -0.114000
      9 C8          -1.1600    -2.2790    -0.0390 ca         1 LIG      -0.031000
     10 C9          -2.5490    -2.4360    -0.0350 ca         1 LIG      -0.115000
     11 C10         -3.3850    -1.3270    -0.1300 ca         1 LIG      -0.114000
     12 C11         -2.8520    -0.0370    -0.2300 ca         1 LIG      -0.034000
     13 C12         -3.7050     1.0650    -0.3240 ca         1 LIG      -0.114000
     14 C13         -3.1830     2.3450    -0.4230 ca         1 LIG      -0.128000
     15 C14         -1.8010     2.5340    -0.4290 ca         1 LIG      -0.116000
     16 C15         -0.8870     1.4550    -0.3360 ca         1 LIG      -0.016000
     17 C16          0.5410     1.6150    -0.3400 ca         1 LIG      -0.016000
     18 C17          1.1930     2.8700    -0.4360 ca         1 LIG      -0.116000
     19 C18          1.3730     0.4680    -0.2420 ca         1 LIG      -0.011000
     20 C19          0.8030    -0.8230    -0.1420 ca         1 LIG      -0.012000
     21 C20         -0.6000    -0.9810    -0.1390 ca         1 LIG      -0.012000
     22 C21         -1.4430     0.1520    -0.2360 ca         1 LIG      -0.011000
     23 H            3.0420     3.9750    -0.5120 ha         1 LIG       0.134000
     24 H1           4.4580     1.9720    -0.3420 ha         1 LIG       0.135000
     25 H2           4.6800    -0.4550    -0.1460 ha         1 LIG       0.134000
     26 H3           3.6810    -2.6760     0.0260 ha         1 LIG       0.134000
     27 H4           1.6930    -4.1230     0.1290 ha         1 LIG       0.135000
     28 H5          -0.7350    -4.3950     0.1340 ha         1 LIG       0.135000
     29 H6          -2.9940    -3.4250     0.0410 ha         1 LIG       0.134000
     30 H7          -4.4620    -1.4820    -0.1250 ha         1 LIG       0.134000
     31 H8          -4.7850     0.9340    -0.3210 ha         1 LIG       0.135000
     32 H9          -3.8490     3.2010    -0.4960 ha         1 LIG       0.134000
     33 H10         -1.4510     3.5590    -0.5090 ha         1 LIG       0.133000
     34 H11          0.6240     3.7920    -0.5140 ha         1 LIG       0.133000
@<TRIPOS>BOND
     1     1     2 ar  
     2     2     3 ar  
     3     3     4 ar  
     4     4     5 ar  
     5     5     6 ar  
     6     6     7 ar  
     7     7     8 ar  
     8     8     9 ar  
     9     9    10 ar  
    10    10    11 ar  
    11    11    12 ar  
    12    12    13 ar  
    13    13    14 ar  
    14    14    15 ar  
    15    15    16 ar  
    16    16    17 ar  
    17    17    18 ar  
    18    17    19 ar  
    19    19    20 ar  
    20    20    21 ar  
    21    21    22 ar  
    22    18     1 ar  
    23    19     3 ar  
    24    20     6 ar  
    25    21     9 ar  
    26    22    12 ar  
    27    22    16 ar  
    28     1    23 1   
    29     2    24 1   
    30     4    25 1   
    31     5    26 1   
    32     7    27 1   
    33     8    28 1   
    34    10    29 1   
    35    11    30 1   
    36    13    31 1   
    37    14    32 1   
    38    15    33 1   
    39    18    34 1   
@<TRIPOS>SUBSTRUCTURE
     1 LIG         1 TEMP              0 ****  ****    0 ROOT
