@<TRIPOS>MOLECULE
LIG
   20    19     1     0     0
SMALL
bcc


@<TRIPOS>ATOM
      1 N            0.9460     0.3660    -0.4160 n          1 LIG      -0.711900
      2 C            1.7900    -0.6030     0.0350 c          1 LIG       0.682100
      3 O            1.4500    -1.7470     0.3110 o          1 LIG      -0.614100
      4 C1           3.2200    -0.1530     0.1770 c3         1 LIG      -0.165100
      5 P           -0.6360     0.0250    -0.8820 p5         1 LIG       1.449500
      6 O1          -0.7070    -0.7300    -2.1760 o          1 LIG      -0.758300
      7 O2          -1.3400    -0.7210     0.3640 os         1 LIG      -0.548200
      8 C2          -1.7450    -2.0620     0.1700 c3         1 LIG       0.143700
      9 S           -1.5660     1.8830    -1.1150 ss         1 LIG      -0.622500
     10 C3          -1.9190     2.4010     0.5730 c3         1 LIG       0.162000
     11 H            1.3380     1.1870    -0.8450 hn         1 LIG       0.369500
     12 H1           3.3100     0.9350     0.1160 hc         1 LIG       0.083367
     13 H2           3.6000    -0.4730     1.1520 hc         1 LIG       0.083367
     14 H3           3.8180    -0.6050    -0.6190 hc         1 LIG       0.083367
     15 H4          -0.9220    -2.6690    -0.2160 h1         1 LIG       0.058033
     16 H5          -2.5870    -2.0950    -0.5270 h1         1 LIG       0.058033
     17 H6          -2.0670    -2.4730     1.1300 h1         1 LIG       0.058033
     18 H7          -0.9970     2.4250     1.1590 h1         1 LIG       0.063367
     19 H8          -2.6230     1.7090     1.0410 h1         1 LIG       0.063367
     20 H9          -2.3600     3.4010     0.5670 h1         1 LIG       0.063367
@<TRIPOS>BOND
     1     1     2 1   
     2     2     3 2   
     3     2     4 1   
     4     1     5 1   
     5     5     6 2   
     6     5     7 1   
     7     7     8 1   
     8     5     9 1   
     9     9    10 1   
    10     1    11 1   
    11     4    12 1   
    12     4    13 1   
    13     4    14 1   
    14     8    15 1   
    15     8    16 1   
    16     8    17 1   
    17    10    18 1   
    18    10    19 1   
    19    10    20 1   
@<TRIPOS>SUBSTRUCTURE
     1 LIG         1 TEMP              0 ****  ****    0 ROOT
