@<TRIPOS>MOLECULE
LIG
   13    13     1     0     0
SMALL
bcc


@<TRIPOS>ATOM
      1 O           -2.4850    -0.4470     0.0650 oh         1 LIG      -0.487100
      2 C           -1.1340    -0.2380     0.0330 ca         1 LIG       0.139100
      3 C1          -0.3120    -1.3540     0.1500 ca         1 LIG      -0.144000
      4 C2           1.0740    -1.1930     0.1240 ca         1 LIG      -0.088000
      5 C3           1.6230     0.0840    -0.0190 ca         1 LIG      -0.014600
      6 Cl           3.3320     0.2760    -0.0510 cl         1 LIG      -0.084400
      7 C4           0.8010     1.2040    -0.1370 ca         1 LIG      -0.080000
      8 C5          -0.5830     1.0380    -0.1100 ca         1 LIG      -0.065600
      9 Cl1         -1.6060     2.4190    -0.2550 cl         1 LIG      -0.085400
     10 H           -2.9160     0.4230    -0.0280 ho         1 LIG       0.432000
     11 H1          -0.7480    -2.3430     0.2620 ha         1 LIG       0.161000
     12 H2           1.7190    -2.0630     0.2150 ha         1 LIG       0.154000
     13 H3           1.2350     2.1930    -0.2480 ha         1 LIG       0.163000
@<TRIPOS>BOND
     1     1     2 1   
     2     2     3 ar  
     3     3     4 ar  
     4     4     5 ar  
     5     5     6 1   
     6     5     7 ar  
     7     7     8 ar  
     8     8     9 1   
     9     8     2 ar  
    10     1    10 1   
    11     3    11 1   
    12     4    12 1   
    13     7    13 1   
@<TRIPOS>SUBSTRUCTURE
     1 LIG         1 TEMP              0 ****  ****    0 ROOT
