@<TRIPOS>MOLECULE
LIG
   26    27     1     0     0
SMALL
bcc


@<TRIPOS>ATOM
      1 C           -3.1430     1.9460     0.3710 ca         1 LIG      -0.123000
      2 C1          -1.8630     2.4710     0.2420 ca         1 LIG      -0.132000
      3 C2          -0.7990     1.6350    -0.1020 ca         1 LIG      -0.103000
      4 C3          -0.9990     0.2560    -0.3240 ca         1 LIG      -0.037000
      5 C4           0.0410    -0.6350    -0.6680 ca         1 LIG       0.132100
      6 O            1.3420    -0.1450    -0.8560 os         1 LIG      -0.374200
      7 C5           2.1900    -0.3900     0.2120 c          1 LIG       0.734100
      8 O1           1.9050    -0.9700     1.2500 o          1 LIG      -0.560000
      9 N            3.4220     0.1370    -0.0690 n          1 LIG      -0.531900
     10 C6           4.4790     0.1590     0.9050 c3         1 LIG       0.076300
     11 C7          -0.1930    -1.9910    -0.9120 ca         1 LIG      -0.139000
     12 C8          -1.4820    -2.4940    -0.7790 ca         1 LIG      -0.110000
     13 C9          -2.5290    -1.6410    -0.4210 ca         1 LIG      -0.129000
     14 C10         -2.3060    -0.2700    -0.1950 ca         1 LIG      -0.026000
     15 C11         -3.3640     0.5860     0.1540 ca         1 LIG      -0.121000
     16 H           -3.9730     2.5940     0.6410 ha         1 LIG       0.132000
     17 H1          -1.6880     3.5300     0.4120 ha         1 LIG       0.133000
     18 H2           0.1940     2.0670    -0.1940 ha         1 LIG       0.141000
     19 H3           3.4880     0.6960    -0.9070 hn         1 LIG       0.321500
     20 H4           5.4310     0.2700     0.3820 h1         1 LIG       0.050367
     21 H5           4.4790    -0.7640     1.4910 h1         1 LIG       0.050367
     22 H6           4.3220     1.0120     1.5700 h1         1 LIG       0.050367
     23 H7           0.6240    -2.6490    -1.1920 ha         1 LIG       0.158000
     24 H8          -1.6750    -3.5490    -0.9510 ha         1 LIG       0.137000
     25 H9          -3.5300    -2.0560    -0.3210 ha         1 LIG       0.135000
     26 H10         -4.3730     0.1950     0.2590 ha         1 LIG       0.134000
@<TRIPOS>BOND
     1     1     2 ar  
     2     2     3 ar  
     3     3     4 ar  
     4     4     5 ar  
     5     5     6 1   
     6     6     7 1   
     7     7     8 2   
     8     7     9 1   
     9     9    10 1   
    10     5    11 ar  
    11    11    12 ar  
    12    12    13 ar  
    13    13    14 ar  
    14    14    15 ar  
    15    15     1 ar  
    16    14     4 ar  
    17     1    16 1   
    18     2    17 1   
    19     3    18 1   
    20     9    19 1   
    21    10    20 1   
    22    10    21 1   
    23    10    22 1   
    24    11    23 1   
    25    12    24 1   
    26    13    25 1   
    27    15    26 1   
@<TRIPOS>SUBSTRUCTURE
     1 LIG         1 TEMP              0 ****  ****    0 ROOT
