@<TRIPOS>MOLECULE
LIG
   21    21     1     0     0
SMALL
bcc


@<TRIPOS>ATOM
      1 C            1.3780    -1.2590    -0.2220 ca         1 LIG      -0.132000
      2 C1           0.0840    -1.6830     0.0850 ca         1 LIG      -0.123000
      3 C2          -0.9570    -0.7580     0.2460 ca         1 LIG      -0.082300
      4 C3          -2.3380    -1.2530     0.5780 c3         1 LIG      -0.050800
      5 C4          -0.6830     0.6170     0.1020 ca         1 LIG      -0.074300
      6 C5          -1.7610     1.6530     0.2730 c3         1 LIG      -0.051800
      7 C6           0.6240     1.0290    -0.2080 ca         1 LIG      -0.127000
      8 C7           1.6560     0.0990    -0.3840 ca         1 LIG      -0.079300
      9 C8           3.0520     0.5610    -0.6810 c3         1 LIG      -0.052800
     10 H            2.1670    -1.9990    -0.3350 ha         1 LIG       0.130000
     11 H1          -0.1050    -2.7480     0.2000 ha         1 LIG       0.129000
     12 H2          -2.6570    -0.8650     1.5500 hc         1 LIG       0.042700
     13 H3          -2.3710    -2.3460     0.6320 hc         1 LIG       0.042700
     14 H4          -3.0500    -0.9410    -0.1920 hc         1 LIG       0.042700
     15 H5          -2.1840     1.5980     1.2810 hc         1 LIG       0.043033
     16 H6          -2.5540     1.5020    -0.4660 hc         1 LIG       0.043033
     17 H7          -1.3700     2.6660     0.1360 hc         1 LIG       0.043033
     18 H8           0.8410     2.0900    -0.3140 ha         1 LIG       0.130000
     19 H9           3.0410     1.4780    -1.2790 hc         1 LIG       0.043033
     20 H10          3.5890     0.7530     0.2530 hc         1 LIG       0.043033
     21 H11          3.6000    -0.1940    -1.2550 hc         1 LIG       0.043033
@<TRIPOS>BOND
     1     1     2 ar  
     2     2     3 ar  
     3     3     4 1   
     4     3     5 ar  
     5     5     6 1   
     6     5     7 ar  
     7     7     8 ar  
     8     8     9 1   
     9     8     1 ar  
    10     1    10 1   
    11     2    11 1   
    12     4    12 1   
    13     4    13 1   
    14     4    14 1   
    15     6    15 1   
    16     6    16 1   
    17     6    17 1   
    18     7    18 1   
    19     9    19 1   
    20     9    20 1   
    21     9    21 1   
@<TRIPOS>SUBSTRUCTURE
     1 LIG         1 TEMP              0 ****  ****    0 ROOT
