@<TRIPOS>MOLECULE
LIG
   11    10     1     0     0
SMALL
bcc


@<TRIPOS>ATOM
      1 N           -0.8210     0.9880    -0.0300 nh         1 LIG      -0.926800
      2 C           -0.2900    -0.2460     0.1840 c2         1 LIG       0.887100
      3 N1           0.8800    -0.7280    -0.0590 n2         1 LIG      -0.819100
      4 N2           1.7860     0.0850    -0.6330 no         1 LIG       0.485400
      5 O            2.5320    -0.4080    -1.4890 o          1 LIG      -0.242500
      6 O1           1.8680     1.2770    -0.2860 o          1 LIG      -0.242500
      7 N3          -1.2520    -1.0320     0.7380 nh         1 LIG      -0.926800
      8 H           -0.1180     1.7120    -0.1930 hn         1 LIG       0.446300
      9 H1          -1.4420     1.2810     0.7180 hn         1 LIG       0.446300
     10 H2          -2.1590    -0.9160     0.2990 hn         1 LIG       0.446300
     11 H3          -0.9830    -2.0120     0.7510 hn         1 LIG       0.446300
@<TRIPOS>BOND
     1     1     2 1   
     2     2     3 2   
     3     3     4 1   
     4     4     5 1   
     5     4     6 1   
     6     2     7 1   
     7     1     8 1   
     8     1     9 1   
     9     7    10 1   
    10     7    11 1   
@<TRIPOS>SUBSTRUCTURE
     1 LIG         1 TEMP              0 ****  ****    0 ROOT
