@<TRIPOS>MOLECULE
LIG
   12    12     1     0     0
SMALL
bcc


@<TRIPOS>ATOM
      1 C           -1.1050    -0.8510    -0.0360 ca         1 LIG      -0.130000
      2 C1           0.1850    -1.3810    -0.0580 ca         1 LIG      -0.130000
      3 C2           1.2900    -0.5300    -0.0220 ca         1 LIG      -0.130000
      4 C3           1.1050     0.8510     0.0360 ca         1 LIG      -0.130000
      5 C4          -0.1850     1.3810     0.0580 ca         1 LIG      -0.130000
      6 C5          -1.2900     0.5300     0.0220 ca         1 LIG      -0.130000
      7 H           -1.9650    -1.5140    -0.0650 ha         1 LIG       0.130000
      8 H1           0.3300    -2.4570    -0.1040 ha         1 LIG       0.130000
      9 H2           2.2950    -0.9430    -0.0390 ha         1 LIG       0.130000
     10 H3           1.9650     1.5140     0.0650 ha         1 LIG       0.130000
     11 H4          -0.3300     2.4570     0.1040 ha         1 LIG       0.130000
     12 H5          -2.2950     0.9430     0.0390 ha         1 LIG       0.130000
@<TRIPOS>BOND
     1     1     2 ar  
     2     2     3 ar  
     3     3     4 ar  
     4     4     5 ar  
     5     5     6 ar  
     6     6     1 ar  
     7     1     7 1   
     8     2     8 1   
     9     3     9 1   
    10     4    10 1   
    11     5    11 1   
    12     6    12 1   
@<TRIPOS>SUBSTRUCTURE
     1 LIG         1 TEMP              0 ****  ****    0 ROOT
