@<TRIPOS>MOLECULE
LIG
    8     7     1     0     0
SMALL
bcc


@<TRIPOS>ATOM
      1 C            0.7670    -0.0790    -0.2180 c3         1 LIG       0.010000
      2 Cl           1.7020     0.3780     1.2320 cl         1 LIG      -0.144400
      3 C1          -0.7490    -0.0050    -0.0410 c3         1 LIG       0.133100
      4 Cl1         -1.3090     1.6510     0.3090 cl         1 LIG      -0.134400
      5 Cl2         -1.3410    -1.1320     1.2070 cl         1 LIG      -0.134400
      6 H            1.0900     0.5840    -1.0280 h1         1 LIG       0.085700
      7 H1           1.0710    -1.0960    -0.4850 h1         1 LIG       0.085700
      8 H2          -1.2310    -0.3010    -0.9770 h2         1 LIG       0.099700
@<TRIPOS>BOND
     1     1     2 1   
     2     1     3 1   
     3     3     4 1   
     4     3     5 1   
     5     1     6 1   
     6     1     7 1   
     7     3     8 1   
@<TRIPOS>SUBSTRUCTURE
     1 LIG         1 TEMP              0 ****  ****    0 ROOT
