@<TRIPOS>MOLECULE
LIG
    4     3     1     0     0
SMALL
bcc


@<TRIPOS>ATOM
      1 C           -0.0120     0.0020     0.0000 c          1 LIG       0.562700
      2 O            1.1900    -0.2300    -0.0390 o          1 LIG      -0.515100
      3 H           -0.7660    -0.8010     0.0180 h4         1 LIG      -0.023800
      4 H1          -0.4120     1.0290     0.0210 h4         1 LIG      -0.023800
@<TRIPOS>BOND
     1     1     2 2   
     2     1     3 1   
     3     1     4 1   
@<TRIPOS>SUBSTRUCTURE
     1 LIG         1 TEMP              0 ****  ****    0 ROOT
