@<TRIPOS>MOLECULE
LIG
   31    31     1     0     0
SMALL
bcc


@<TRIPOS>ATOM
      1 N            2.3190     0.7100    -0.1320 nh         1 LIG      -0.826900
      2 C            1.1510    -0.0150    -0.2960 ca         1 LIG       0.929900
      3 N1           1.1650    -1.1750    -0.9250 nb         1 LIG      -0.800000
      4 C1          -0.0280    -1.7380    -1.0140 ca         1 LIG       0.801000
      5 Cl          -0.0850    -3.2450    -1.8200 cl         1 LIG      -0.117000
      6 N2          -1.1830    -1.2820    -0.5580 nb         1 LIG      -0.800000
      7 C2          -1.0830    -0.1210     0.0590 ca         1 LIG       0.929900
      8 N3          -2.2010     0.4880     0.6120 nh         1 LIG      -0.826900
      9 C3          -3.4800     0.2470    -0.0470 c3         1 LIG       0.215000
     10 C4          -4.1750    -0.9580     0.5870 c3         1 LIG      -0.114100
     11 C5          -4.3580     1.4910     0.1150 c3         1 LIG      -0.114100
     12 N4           0.0570     0.5450     0.2090 nb         1 LIG      -0.849000
     13 C6           3.5720    -0.0260    -0.0280 c3         1 LIG       0.215000
     14 C7           3.6940    -0.7010     1.3380 c3         1 LIG      -0.114100
     15 C8           4.7210     0.9630    -0.2290 c3         1 LIG      -0.114100
     16 H            2.1530     1.4080     0.5860 hn         1 LIG       0.434800
     17 H1          -1.9500     1.4620     0.7530 hn         1 LIG       0.434800
     18 H2          -3.3490     0.0760    -1.1230 h1         1 LIG       0.088700
     19 H3          -4.3250    -0.8090     1.6620 hc         1 LIG       0.045033
     20 H4          -5.1540    -1.1270     0.1270 hc         1 LIG       0.045033
     21 H5          -3.5880    -1.8730     0.4630 hc         1 LIG       0.045033
     22 H6          -3.8830     2.3640    -0.3460 hc         1 LIG       0.045033
     23 H7          -5.3330     1.3460    -0.3620 hc         1 LIG       0.045033
     24 H8          -4.5260     1.7270     1.1720 hc         1 LIG       0.045033
     25 H9           3.6510    -0.7830    -0.8190 h1         1 LIG       0.088700
     26 H10          2.9040    -1.4440     1.4870 hc         1 LIG       0.045033
     27 H11          4.6560    -1.2150     1.4330 hc         1 LIG       0.045033
     28 H12          3.6170     0.0290     2.1520 hc         1 LIG       0.045033
     29 H13          5.6890     0.4530    -0.1770 hc         1 LIG       0.045033
     30 H14          4.6470     1.4490    -1.2080 hc         1 LIG       0.045033
     31 H15          4.7090     1.7510     0.5320 hc         1 LIG       0.045033
@<TRIPOS>BOND
     1     1     2 1   
     2     2     3 ar  
     3     3     4 ar  
     4     4     5 1   
     5     4     6 ar  
     6     6     7 ar  
     7     7     8 1   
     8     8     9 1   
     9     9    10 1   
    10     9    11 1   
    11     7    12 ar  
    12     1    13 1   
    13    13    14 1   
    14    13    15 1   
    15    12     2 ar  
    16     1    16 1   
    17     8    17 1   
    18     9    18 1   
    19    10    19 1   
    20    10    20 1   
    21    10    21 1   
    22    11    22 1   
    23    11    23 1   
    24    11    24 1   
    25    13    25 1   
    26    14    26 1   
    27    14    27 1   
    28    14    28 1   
    29    15    29 1   
    30    15    30 1   
    31    15    31 1   
@<TRIPOS>SUBSTRUCTURE
     1 LIG         1 TEMP              0 ****  ****    0 ROOT
