@<TRIPOS>MOLECULE
LIG
   11    10     1     0     0
SMALL
bcc


@<TRIPOS>ATOM
      1 C           -1.2800    -0.3840     0.0910 c3         1 LIG      -0.106100
      2 C1          -0.0400     0.2930    -0.4840 c3         1 LIG       0.043700
      3 Cl          -0.3250     2.0620    -0.5300 cl         1 LIG      -0.183400
      4 C2           1.1980    -0.0440     0.3480 c3         1 LIG       0.022000
      5 Cl1          2.7030     0.5210    -0.4240 cl         1 LIG      -0.173400
      6 H           -1.4730    -0.0620     1.1200 hc         1 LIG       0.052033
      7 H1          -1.1570    -1.4720     0.0960 hc         1 LIG       0.052033
      8 H2          -2.1670    -0.1540    -0.5090 hc         1 LIG       0.052033
      9 H3           0.0970    -0.0340    -1.5200 h1         1 LIG       0.086700
     10 H4           1.2980    -1.1270     0.4650 h1         1 LIG       0.076700
     11 H5           1.1470     0.4010     1.3480 h1         1 LIG       0.076700
@<TRIPOS>BOND
     1     1     2 1   
     2     2     3 1   
     3     2     4 1   
     4     4     5 1   
     5     1     6 1   
     6     1     7 1   
     7     1     8 1   
     8     2     9 1   
     9     4    10 1   
    10     4    11 1   
@<TRIPOS>SUBSTRUCTURE
     1 LIG         1 TEMP              0 ****  ****    0 ROOT
