@<TRIPOS>MOLECULE
LIG
   47    47     1     0     0
SMALL
bcc


@<TRIPOS>ATOM
      1 C            5.9470    -1.3550     0.8350 ca         1 LIG      -0.067000
      2 C1           6.3820    -0.3740    -0.0580 ca         1 LIG      -0.158500
      3 C2           5.5610     0.7160    -0.3520 ca         1 LIG      -0.013500
      4 C3           4.3030     0.8110     0.2500 ca         1 LIG      -0.399500
      5 S            3.2690     2.2030    -0.1140 sy         1 LIG       1.514200
      6 O            4.1240     3.3410    -0.3740 o          1 LIG      -0.660800
      7 O1           2.1970     2.2670     0.8540 o          1 LIG      -0.660800
      8 N            2.6030     1.7830    -1.5890 n3         1 LIG      -0.911100
      9 C4           1.5300     0.7930    -1.6770 c3         1 LIG       0.206800
     10 C5           0.1650     1.4560    -1.4940 c3         1 LIG       0.141700
     11 S1          -1.2030     0.2920    -1.7550 ss         1 LIG      -0.525500
     12 P           -1.4690    -0.6520     0.1160 p5         1 LIG       0.972200
     13 S2          -0.0670    -1.8390     0.7690 s          1 LIG      -0.528000
     14 O2          -2.9250    -1.3760     0.0890 os         1 LIG      -0.511700
     15 C6          -3.1650    -2.4590    -0.7990 c3         1 LIG       0.177600
     16 C7          -3.5300    -3.6850     0.0270 c3         1 LIG      -0.114350
     17 C8          -4.3130    -2.0700    -1.7210 c3         1 LIG      -0.114350
     18 O3          -1.7690     0.5220     1.1980 os         1 LIG      -0.511700
     19 C9          -2.9550     1.3010     1.1120 c3         1 LIG       0.177600
     20 C10         -2.5680     2.7690     1.2120 c3         1 LIG      -0.114350
     21 C11         -3.8740     0.9040     2.2590 c3         1 LIG      -0.114350
     22 C12          3.8700    -0.1600     1.1570 ca         1 LIG      -0.013500
     23 C13          4.6940    -1.2480     1.4420 ca         1 LIG      -0.158500
     24 H            6.5870    -2.2040     1.0630 ha         1 LIG       0.133000
     25 H1           7.3620    -0.4580    -0.5210 ha         1 LIG       0.144000
     26 H2           5.9060     1.4820    -1.0420 ha         1 LIG       0.170500
     27 H3           2.7810     2.4330    -2.3530 hn         1 LIG       0.448800
     28 H4           1.6940     0.0010    -0.9430 h1         1 LIG       0.076200
     29 H5           1.5980     0.3270    -2.6670 h1         1 LIG       0.076200
     30 H6           0.0660     1.8990    -0.5010 h1         1 LIG       0.096700
     31 H7           0.0510     2.2700    -2.2190 h1         1 LIG       0.096700
     32 H8          -2.2750    -2.6750    -1.4000 h1         1 LIG       0.068700
     33 H9          -2.7110    -3.9540     0.7020 hc         1 LIG       0.057450
     34 H10         -4.4030    -3.4880     0.6590 hc         1 LIG       0.057450
     35 H11         -3.7470    -4.5460    -0.6130 hc         1 LIG       0.057450
     36 H12         -4.0570    -1.1760    -2.2990 hc         1 LIG       0.057450
     37 H13         -5.2120    -1.8230    -1.1470 hc         1 LIG       0.057450
     38 H14         -4.5530    -2.8770    -2.4200 hc         1 LIG       0.057450
     39 H15         -3.4650     1.1310     0.1580 h1         1 LIG       0.068700
     40 H16         -2.0110     2.9690     2.1340 hc         1 LIG       0.057450
     41 H17         -1.9130     3.0510     0.3820 hc         1 LIG       0.057450
     42 H18         -3.4510     3.4160     1.1880 hc         1 LIG       0.057450
     43 H19         -3.3810     1.0510     3.2260 hc         1 LIG       0.057450
     44 H20         -4.1320    -0.1590     2.1990 hc         1 LIG       0.057450
     45 H21         -4.8000     1.4870     2.2460 hc         1 LIG       0.057450
     46 H22          2.8980    -0.0830     1.6400 ha         1 LIG       0.170500
     47 H23          4.3590    -2.0130     2.1400 ha         1 LIG       0.144000
@<TRIPOS>BOND
     1     1     2 ar  
     2     2     3 ar  
     3     3     4 ar  
     4     4     5 1   
     5     5     6 2   
     6     5     7 2   
     7     5     8 1   
     8     8     9 1   
     9     9    10 1   
    10    10    11 1   
    11    11    12 1   
    12    12    13 2   
    13    12    14 1   
    14    14    15 1   
    15    15    16 1   
    16    15    17 1   
    17    12    18 1   
    18    18    19 1   
    19    19    20 1   
    20    19    21 1   
    21     4    22 ar  
    22    22    23 ar  
    23    23     1 ar  
    24     1    24 1   
    25     2    25 1   
    26     3    26 1   
    27     8    27 1   
    28     9    28 1   
    29     9    29 1   
    30    10    30 1   
    31    10    31 1   
    32    15    32 1   
    33    16    33 1   
    34    16    34 1   
    35    16    35 1   
    36    17    36 1   
    37    17    37 1   
    38    17    38 1   
    39    19    39 1   
    40    20    40 1   
    41    20    41 1   
    42    20    42 1   
    43    21    43 1   
    44    21    44 1   
    45    21    45 1   
    46    22    46 1   
    47    23    47 1   
@<TRIPOS>SUBSTRUCTURE
     1 LIG         1 TEMP              0 ****  ****    0 ROOT
