@<TRIPOS>MOLECULE
LIG
   12    12     1     0     0
SMALL
bcc


@<TRIPOS>ATOM
      1 C           -0.9950     1.0830     0.0350 ca         1 LIG      -0.121000
      2 C1          -1.4520    -0.2340     0.0300 ca         1 LIG      -0.121000
      3 C2          -0.5380    -1.2900    -0.0030 ca         1 LIG      -0.117000
      4 C3           0.8360    -1.0310    -0.0310 ca         1 LIG       0.017400
      5 Cl           1.9090    -2.3850    -0.0700 cl         1 LIG      -0.070400
      6 C4           1.2950     0.2910    -0.0260 ca         1 LIG       0.017400
      7 Cl1          2.9760     0.6900    -0.0590 cl         1 LIG      -0.070400
      8 C5           0.3760     1.3460     0.0070 ca         1 LIG      -0.117000
      9 H           -1.7060     1.9060     0.0600 ha         1 LIG       0.141000
     10 H1          -2.5200    -0.4400     0.0510 ha         1 LIG       0.141000
     11 H2          -0.9040    -2.3140    -0.0060 ha         1 LIG       0.151000
     12 H3           0.7230     2.3760     0.0110 ha         1 LIG       0.151000
@<TRIPOS>BOND
     1     1     2 ar  
     2     2     3 ar  
     3     3     4 ar  
     4     4     5 1   
     5     4     6 ar  
     6     6     7 1   
     7     6     8 ar  
     8     8     1 ar  
     9     1     9 1   
    10     2    10 1   
    11     3    11 1   
    12     8    12 1   
@<TRIPOS>SUBSTRUCTURE
     1 LIG         1 TEMP              0 ****  ****    0 ROOT
