@<TRIPOS>MOLECULE
LIG
    5     4     1     0     0
SMALL
bcc


@<TRIPOS>ATOM
      1 C           -0.0230     0.0070     0.1660 c3         1 LIG       0.123000
      2 Br          -1.4060    -1.1910    -0.4970 br         1 LIG      -0.062400
      3 Br1         -0.2780     1.8310    -0.4610 br         1 LIG      -0.062400
      4 I            1.8420    -0.6820    -0.4610 i          1 LIG      -0.128900
      5 H           -0.1350     0.0360     1.2530 h3         1 LIG       0.131700
@<TRIPOS>BOND
     1     1     2 1   
     2     1     3 1   
     3     1     4 1   
     4     1     5 1   
@<TRIPOS>SUBSTRUCTURE
     1 LIG         1 TEMP              0 ****  ****    0 ROOT
