@<TRIPOS>MOLECULE
LIG
   15    15     1     0     0
SMALL
bcc


@<TRIPOS>ATOM
      1 C            2.0780     0.1050    -0.0600 ca         1 LIG      -0.135000
      2 C1           1.4390    -1.1300    -0.1500 ca         1 LIG      -0.127000
      3 C2           0.0460    -1.2020    -0.1030 ca         1 LIG      -0.131000
      4 C3          -0.7200    -0.0380     0.0440 ca         1 LIG      -0.077300
      5 C4          -2.2180    -0.1120     0.0610 c3         1 LIG      -0.053800
      6 C5          -0.0690     1.1990     0.1190 ca         1 LIG      -0.131000
      7 C6           1.3240     1.2700     0.0720 ca         1 LIG      -0.127000
      8 H            3.1630     0.1600    -0.0980 ha         1 LIG       0.130000
      9 H1           2.0250    -2.0390    -0.2600 ha         1 LIG       0.130000
     10 H2          -0.4400    -2.1720    -0.1820 ha         1 LIG       0.130000
     11 H3          -2.5580    -1.0550     0.5000 hc         1 LIG       0.044033
     12 H4          -2.6070    -0.0350    -0.9590 hc         1 LIG       0.044033
     13 H5          -2.6420     0.6990     0.6630 hc         1 LIG       0.044033
     14 H6          -0.6440     2.1170     0.2160 ha         1 LIG       0.130000
     15 H7           1.8210     2.2340     0.1370 ha         1 LIG       0.130000
@<TRIPOS>BOND
     1     1     2 ar  
     2     2     3 ar  
     3     3     4 ar  
     4     4     5 1   
     5     4     6 ar  
     6     6     7 ar  
     7     7     1 ar  
     8     1     8 1   
     9     2     9 1   
    10     3    10 1   
    11     5    11 1   
    12     5    12 1   
    13     5    13 1   
    14     6    14 1   
    15     7    15 1   
@<TRIPOS>SUBSTRUCTURE
     1 LIG         1 TEMP              0 ****  ****    0 ROOT
