@<TRIPOS>MOLECULE
LIG
   32    36     1     0     0
SMALL
bcc


@<TRIPOS>ATOM
      1 C            4.7600     0.1330     0.1070 ca         1 LIG      -0.127000
      2 C1           4.3070     1.4260    -0.0960 ca         1 LIG      -0.126000
      3 C2           2.9340     1.6780    -0.1810 ca         1 LIG      -0.119000
      4 C3           1.9650     0.6480    -0.0680 ca         1 LIG      -0.016000
      5 C4           2.4570    -0.6640     0.1390 ca         1 LIG      -0.035000
      6 C5           3.8400    -0.9050     0.2240 ca         1 LIG      -0.117000
      7 C6           1.5650    -1.7340     0.2610 ca         1 LIG      -0.104000
      8 C7           0.1820    -1.5460     0.1840 ca         1 LIG      -0.031000
      9 C8          -0.6890    -2.6370     0.3100 ca         1 LIG      -0.115000
     10 C9          -2.0710    -2.4620     0.2350 ca         1 LIG      -0.114000
     11 C10         -2.6150    -1.1910     0.0320 ca         1 LIG      -0.033000
     12 C11         -4.0030    -1.0040    -0.0440 ca         1 LIG      -0.114000
     13 C12         -4.5380     0.2660    -0.2470 ca         1 LIG      -0.127000
     14 C13         -3.6900     1.3640    -0.3750 ca         1 LIG      -0.114000
     15 C14         -2.2980     1.2050    -0.3020 ca         1 LIG      -0.034000
     16 C15         -1.4400     2.2960    -0.4280 ca         1 LIG      -0.116000
     17 C16         -0.0540     2.1250    -0.3530 ca         1 LIG      -0.116000
     18 C17          0.5430     0.8590    -0.1490 ca         1 LIG      -0.017000
     19 C18         -0.3360    -0.2500    -0.0210 ca         1 LIG      -0.012000
     20 C19         -1.7480    -0.0790    -0.0970 ca         1 LIG      -0.015000
     21 H            5.8250    -0.0710     0.1750 ha         1 LIG       0.134000
     22 H1           5.0160     2.2450    -0.1880 ha         1 LIG       0.133000
     23 H2           2.6350     2.7100    -0.3410 ha         1 LIG       0.132000
     24 H3           4.2130    -1.9150     0.3830 ha         1 LIG       0.133000
     25 H4           1.9560    -2.7380     0.4200 ha         1 LIG       0.135000
     26 H5          -0.2990    -3.6400     0.4690 ha         1 LIG       0.133000
     27 H6          -2.7170    -3.3310     0.3370 ha         1 LIG       0.133000
     28 H7          -4.6790    -1.8500     0.0530 ha         1 LIG       0.134000
     29 H8          -5.6140     0.4000    -0.3050 ha         1 LIG       0.133000
     30 H9          -4.1250     2.3490    -0.5320 ha         1 LIG       0.134000
     31 H10         -1.8370     3.2970    -0.5870 ha         1 LIG       0.134000
     32 H11          0.5540     3.0180    -0.4600 ha         1 LIG       0.133000
@<TRIPOS>BOND
     1     1     2 ar  
     2     2     3 ar  
     3     3     4 ar  
     4     4     5 ar  
     5     5     6 ar  
     6     5     7 ar  
     7     7     8 ar  
     8     8     9 ar  
     9     9    10 ar  
    10    10    11 ar  
    11    11    12 ar  
    12    12    13 ar  
    13    13    14 ar  
    14    14    15 ar  
    15    15    16 ar  
    16    16    17 ar  
    17    17    18 ar  
    18    18    19 ar  
    19    19    20 ar  
    20     6     1 ar  
    21    19     8 ar  
    22    18     4 ar  
    23    20    11 ar  
    24    20    15 ar  
    25     1    21 1   
    26     2    22 1   
    27     3    23 1   
    28     6    24 1   
    29     7    25 1   
    30     9    26 1   
    31    10    27 1   
    32    12    28 1   
    33    13    29 1   
    34    14    30 1   
    35    16    31 1   
    36    17    32 1   
@<TRIPOS>SUBSTRUCTURE
     1 LIG         1 TEMP              0 ****  ****    0 ROOT
