@<TRIPOS>MOLECULE
LIG
   29    28     1     0     0
SMALL
bcc


@<TRIPOS>ATOM
      1 O           -4.1840    -1.1740    -0.9430 o          1 LIG      -0.690867
      2 S           -4.3850    -0.2040     0.1340 s6         1 LIG       1.433800
      3 O1          -5.7540     0.3100     0.2160 o          1 LIG      -0.690867
      4 O2          -3.8430    -0.6280     1.4260 o          1 LIG      -0.690867
      5 C           -3.3720     1.2250    -0.3270 c3         1 LIG       0.347400
      6 F           -4.0090     2.0480    -1.2350 f          1 LIG      -0.244300
      7 F1          -3.1150     2.0490     0.7480 f          1 LIG      -0.244300
      8 C1          -2.0530     0.7970    -0.9330 c3         1 LIG       0.369600
      9 F2          -1.3570     1.9650    -1.2060 f          1 LIG      -0.206800
     10 F3          -2.2040     0.2310    -2.1640 f          1 LIG      -0.206800
     11 C2          -1.1660    -0.0660    -0.0530 c3         1 LIG       0.335600
     12 F4          -1.6690    -1.3040     0.1420 f          1 LIG      -0.194300
     13 F5          -1.0220     0.5050     1.1750 f          1 LIG      -0.194300
     14 C3           0.2160    -0.2120    -0.6780 c3         1 LIG       0.342600
     15 F6           0.7940     1.0110    -0.8420 f          1 LIG      -0.189300
     16 F7           0.1400    -0.7530    -1.9220 f          1 LIG      -0.189300
     17 C4           1.1390    -1.0570     0.1840 c3         1 LIG       0.347600
     18 F8           0.5610    -2.2630     0.4590 f          1 LIG      -0.184800
     19 F9           1.3390    -0.4720     1.3970 f          1 LIG      -0.184800
     20 C5           2.4910    -1.3370    -0.4570 c3         1 LIG       0.341600
     21 F10          2.3010    -2.1170    -1.5700 f          1 LIG      -0.187800
     22 F11          3.2080    -2.1380     0.3990 f          1 LIG      -0.187800
     23 C6           3.3730    -0.1680    -0.8470 c3         1 LIG       0.352600
     24 F12          2.8170     0.5410    -1.8680 f          1 LIG      -0.178800
     25 F13          4.5420    -0.6670    -1.3710 f          1 LIG      -0.178800
     26 C7           3.7120     0.7380     0.3220 c3         1 LIG       0.601900
     27 F14          4.6000     1.6970    -0.0420 f          1 LIG      -0.208633
     28 F15          2.6290     1.3840     0.8050 f          1 LIG      -0.208633
     29 F16          4.2680     0.0590     1.3510 f          1 LIG      -0.208633
@<TRIPOS>BOND
     1     1     2 1   
     2     2     3 1   
     3     2     4 1   
     4     2     5 1   
     5     5     6 1   
     6     5     7 1   
     7     5     8 1   
     8     8     9 1   
     9     8    10 1   
    10     8    11 1   
    11    11    12 1   
    12    11    13 1   
    13    11    14 1   
    14    14    15 1   
    15    14    16 1   
    16    14    17 1   
    17    17    18 1   
    18    17    19 1   
    19    17    20 1   
    20    20    21 1   
    21    20    22 1   
    22    20    23 1   
    23    23    24 1   
    24    23    25 1   
    25    23    26 1   
    26    26    27 1   
    27    26    28 1   
    28    26    29 1   
@<TRIPOS>SUBSTRUCTURE
     1 LIG         1 TEMP              0 ****  ****    0 ROOT
