@<TRIPOS>MOLECULE
LIG
   12    12     1     0     0
SMALL
bcc


@<TRIPOS>ATOM
      1 C           -0.2330     1.4310     0.0250 ca         1 LIG      -0.113000
      2 C1          -1.3110     0.5450     0.0710 ca         1 LIG      -0.125000
      3 C2          -1.0810    -0.8310     0.0480 ca         1 LIG       0.024400
      4 Cl          -2.4130    -1.9180     0.1060 cl         1 LIG      -0.085400
      5 C3           0.2170    -1.3320    -0.0230 ca         1 LIG      -0.121000
      6 C4           1.2880    -0.4420    -0.0700 ca         1 LIG       0.024400
      7 Cl1          2.8970    -1.0470    -0.1570 cl         1 LIG      -0.085400
      8 C5           1.0690     0.9360    -0.0460 ca         1 LIG      -0.125000
      9 H           -0.4080     2.5040     0.0430 ha         1 LIG       0.143000
     10 H1          -2.3260     0.9320     0.1270 ha         1 LIG       0.151000
     11 H2           0.3920    -2.4040    -0.0410 ha         1 LIG       0.162000
     12 H3           1.9080     1.6270    -0.0830 ha         1 LIG       0.151000
@<TRIPOS>BOND
     1     1     2 ar  
     2     2     3 ar  
     3     3     4 1   
     4     3     5 ar  
     5     5     6 ar  
     6     6     7 1   
     7     6     8 ar  
     8     8     1 ar  
     9     1     9 1   
    10     2    10 1   
    11     5    11 1   
    12     8    12 1   
@<TRIPOS>SUBSTRUCTURE
     1 LIG         1 TEMP              0 ****  ****    0 ROOT
