@<TRIPOS>MOLECULE
LIG
   13    13     1     0     0
SMALL
bcc


@<TRIPOS>ATOM
      1 O           -2.3710    -0.7700    -0.0520 oh         1 LIG      -0.499100
      2 C           -1.0790    -0.3350    -0.0260 ca         1 LIG       0.123100
      3 C1          -0.0220    -1.2150     0.1900 ca         1 LIG      -0.185000
      4 C2           1.2850    -0.7250     0.2080 ca         1 LIG      -0.094500
      5 C3           1.5250     0.6360     0.0110 ca         1 LIG      -0.166000
      6 C4           0.4580     1.5100    -0.2040 ca         1 LIG      -0.094500
      7 C5          -0.8480     1.0220    -0.2230 ca         1 LIG      -0.185000
      8 H           -2.3760    -1.7290     0.0980 ho         1 LIG       0.418000
      9 H1          -0.1940    -2.2750     0.3440 ha         1 LIG       0.141500
     10 H2           2.1180    -1.4020     0.3770 ha         1 LIG       0.133000
     11 H3           2.5430     1.0170     0.0260 ha         1 LIG       0.133000
     12 H4           0.6430     2.5700    -0.3580 ha         1 LIG       0.133000
     13 H5          -1.6830     1.6960    -0.3910 ha         1 LIG       0.141500
@<TRIPOS>BOND
     1     1     2 1   
     2     2     3 ar  
     3     3     4 ar  
     4     4     5 ar  
     5     5     6 ar  
     6     6     7 ar  
     7     7     2 ar  
     8     1     8 1   
     9     3     9 1   
    10     4    10 1   
    11     5    11 1   
    12     6    12 1   
    13     7    13 1   
@<TRIPOS>SUBSTRUCTURE
     1 LIG         1 TEMP              0 ****  ****    0 ROOT
