@<TRIPOS>MOLECULE
LIG
   12    12     1     0     0
SMALL
bcc


@<TRIPOS>ATOM
      1 C           -0.5780     1.2720    -0.0420 ca         1 LIG      -0.116000
      2 C1           0.8120     1.1350    -0.0890 ca         1 LIG      -0.116000
      3 C2           1.3830    -0.1370    -0.0470 ca         1 LIG       0.015400
      4 Cl           3.0940    -0.3060    -0.1050 cl         1 LIG      -0.087400
      5 C3           0.5780    -1.2720     0.0420 ca         1 LIG      -0.116000
      6 C4          -0.8120    -1.1350     0.0890 ca         1 LIG      -0.116000
      7 C5          -1.3830     0.1370     0.0470 ca         1 LIG       0.015400
      8 Cl1         -3.0940     0.3060     0.1050 cl         1 LIG      -0.087400
      9 H           -1.0240     2.2630    -0.0750 ha         1 LIG       0.152000
     10 H1           1.4400     2.0190    -0.1590 ha         1 LIG       0.152000
     11 H2           1.0240    -2.2630     0.0750 ha         1 LIG       0.152000
     12 H3          -1.4400    -2.0190     0.1590 ha         1 LIG       0.152000
@<TRIPOS>BOND
     1     1     2 ar  
     2     2     3 ar  
     3     3     4 1   
     4     3     5 ar  
     5     5     6 ar  
     6     6     7 ar  
     7     7     8 1   
     8     7     1 ar  
     9     1     9 1   
    10     2    10 1   
    11     5    11 1   
    12     6    12 1   
@<TRIPOS>SUBSTRUCTURE
     1 LIG         1 TEMP              0 ****  ****    0 ROOT
