@<TRIPOS>MOLECULE
LIG
    8     7     1     0     0
SMALL
bcc


@<TRIPOS>ATOM
      1 C           -0.8180    -0.1020    -0.1440 c3         1 LIG      -0.112100
      2 C1           0.6700     0.0840     0.1180 c3         1 LIG       0.263200
      3 Cl           1.0740    -0.5180     1.7500 cl         1 LIG      -0.123400
      4 Cl1          1.0900     1.8150     0.0100 cl         1 LIG      -0.123400
      5 Cl2          1.6140    -0.8270    -1.0940 cl         1 LIG      -0.123400
      6 H           -1.4250     0.4470     0.5860 hc         1 LIG       0.072700
      7 H1          -1.1070    -1.1580    -0.0850 hc         1 LIG       0.072700
      8 H2          -1.0980     0.2590    -1.1410 hc         1 LIG       0.072700
@<TRIPOS>BOND
     1     1     2 1   
     2     2     3 1   
     3     2     4 1   
     4     2     5 1   
     5     1     6 1   
     6     1     7 1   
     7     1     8 1   
@<TRIPOS>SUBSTRUCTURE
     1 LIG         1 TEMP              0 ****  ****    0 ROOT
