@<TRIPOS>MOLECULE
LIG
   35    36     1     0     0
SMALL
bcc


@<TRIPOS>ATOM
      1 C           -1.6660    -3.6510    -0.0660 ca         1 LIG      -0.126500
      2 C1          -1.0130    -3.3650    -1.2620 ca         1 LIG      -0.130250
      3 C2          -0.5320    -2.0770    -1.5040 ca         1 LIG      -0.123750
      4 C3          -0.6930    -1.0520    -0.5540 ca         1 LIG      -0.083300
      5 C4          -0.1410     0.3440    -0.8760 c3         1 LIG      -0.038100
      6 C5           1.3830     0.3530    -1.1520 c          1 LIG       0.667100
      7 O            1.7800     0.7680    -2.2500 o          1 LIG      -0.618100
      8 N            2.2960    -0.0860    -0.1930 n          1 LIG      -0.468800
      9 C6           3.6920    -0.2110    -0.5830 c3         1 LIG       0.076300
     10 C7           1.9420    -0.7190     1.0680 c3         1 LIG       0.076300
     11 C8          -0.6660     1.5200    -0.0440 ca         1 LIG      -0.083300
     12 C9           0.1590     2.3400     0.7420 ca         1 LIG      -0.123750
     13 C10         -0.3750     3.4050     1.4740 ca         1 LIG      -0.130250
     14 C11         -1.7390     3.6760     1.4270 ca         1 LIG      -0.126500
     15 C12         -2.5740     2.8870     0.6420 ca         1 LIG      -0.130250
     16 C13         -2.0420     1.8240    -0.0900 ca         1 LIG      -0.123750
     17 C14         -1.3590    -1.3600     0.6440 ca         1 LIG      -0.123750
     18 C15         -1.8400    -2.6490     0.8850 ca         1 LIG      -0.130250
     19 H           -2.0430    -4.6530     0.1220 ha         1 LIG       0.133000
     20 H1          -0.8790    -4.1440    -2.0080 ha         1 LIG       0.133750
     21 H2          -0.0270    -1.8760    -2.4490 ha         1 LIG       0.142000
     22 H3          -0.5660     0.5560    -1.8730 hc         1 LIG       0.102700
     23 H4           3.9310     0.3810    -1.4710 h1         1 LIG       0.044867
     24 H5           3.9010    -1.2640    -0.7940 h1         1 LIG       0.044867
     25 H6           4.3270     0.1320     0.2390 h1         1 LIG       0.044867
     26 H7           1.8260    -1.7940     0.9030 h1         1 LIG       0.044867
     27 H8           2.7410    -0.5500     1.7960 h1         1 LIG       0.044867
     28 H9           1.0260    -0.3030     1.4830 h1         1 LIG       0.044867
     29 H10          1.2330     2.1790     0.7940 ha         1 LIG       0.142000
     30 H11          0.2810     4.0290     2.0750 ha         1 LIG       0.133750
     31 H12         -2.1500     4.5070     1.9940 ha         1 LIG       0.133000
     32 H13         -3.6380     3.1000     0.5930 ha         1 LIG       0.133750
     33 H14         -2.7120     1.2240    -0.7040 ha         1 LIG       0.142000
     34 H15         -1.5100    -0.6030     1.4120 ha         1 LIG       0.142000
     35 H16         -2.3530    -2.8700     1.8180 ha         1 LIG       0.133750
@<TRIPOS>BOND
     1     1     2 ar  
     2     2     3 ar  
     3     3     4 ar  
     4     4     5 1   
     5     5     6 1   
     6     6     7 2   
     7     6     8 1   
     8     8     9 1   
     9     8    10 1   
    10     5    11 1   
    11    11    12 ar  
    12    12    13 ar  
    13    13    14 ar  
    14    14    15 ar  
    15    15    16 ar  
    16     4    17 ar  
    17    17    18 ar  
    18    18     1 ar  
    19    16    11 ar  
    20     1    19 1   
    21     2    20 1   
    22     3    21 1   
    23     5    22 1   
    24     9    23 1   
    25     9    24 1   
    26     9    25 1   
    27    10    26 1   
    28    10    27 1   
    29    10    28 1   
    30    12    29 1   
    31    13    30 1   
    32    14    31 1   
    33    15    32 1   
    34    16    33 1   
    35    17    34 1   
    36    18    35 1   
@<TRIPOS>SUBSTRUCTURE
     1 LIG         1 TEMP              0 ****  ****    0 ROOT
