@<TRIPOS>MOLECULE
LIG
   25    26     1     0     0
SMALL
bcc


@<TRIPOS>ATOM
      1 C           -3.4910     0.4400     1.5630 ca         1 LIG      -0.132500
      2 C1          -3.5400     1.1200     0.3500 ca         1 LIG      -0.120250
      3 C2          -2.4770     1.0220    -0.5530 ca         1 LIG      -0.130500
      4 C3          -1.3360     0.2480    -0.2590 ca         1 LIG       0.120600
      5 N           -0.2430     0.1470    -1.1990 nh         1 LIG      -0.326500
      6 N1          -0.5580     0.2110    -2.5320 n2         1 LIG       0.168600
      7 O            0.3590     0.6080    -3.2610 o          1 LIG      -0.223300
      8 C4           1.1030    -0.1330    -0.7600 ca         1 LIG       0.120600
      9 C5           1.9050    -1.0890    -1.4120 ca         1 LIG      -0.130500
     10 C6           3.2050    -1.3560    -0.9760 ca         1 LIG      -0.120250
     11 C7           3.7300    -0.6700     0.1170 ca         1 LIG      -0.132500
     12 C8           2.9590     0.2860     0.7730 ca         1 LIG      -0.120250
     13 C9           1.6580     0.5540     0.3380 ca         1 LIG      -0.130500
     14 C10         -1.3170    -0.4380     0.9720 ca         1 LIG      -0.130500
     15 C11         -2.3810    -0.3410     1.8730 ca         1 LIG      -0.120250
     16 H           -4.3190     0.5140     2.2640 ha         1 LIG       0.135500
     17 H1          -4.4060     1.7290     0.1020 ha         1 LIG       0.136750
     18 H2          -2.5420     1.5760    -1.4870 ha         1 LIG       0.147000
     19 H3           1.5140    -1.6410    -2.2640 ha         1 LIG       0.147000
     20 H4           3.8070    -2.0990    -1.4930 ha         1 LIG       0.136750
     21 H5           4.7430    -0.8760     0.4530 ha         1 LIG       0.135500
     22 H6           3.3700     0.8310     1.6190 ha         1 LIG       0.136750
     23 H7           1.0810     1.3210     0.8500 ha         1 LIG       0.147000
     24 H8          -0.4800    -1.0810     1.2360 ha         1 LIG       0.147000
     25 H9          -2.3440    -0.8830     2.8150 ha         1 LIG       0.136750
@<TRIPOS>BOND
     1     1     2 ar  
     2     2     3 ar  
     3     3     4 ar  
     4     4     5 1   
     5     5     6 1   
     6     6     7 2   
     7     5     8 1   
     8     8     9 ar  
     9     9    10 ar  
    10    10    11 ar  
    11    11    12 ar  
    12    12    13 ar  
    13     4    14 ar  
    14    14    15 ar  
    15    15     1 ar  
    16    13     8 ar  
    17     1    16 1   
    18     2    17 1   
    19     3    18 1   
    20     9    19 1   
    21    10    20 1   
    22    11    21 1   
    23    12    22 1   
    24    13    23 1   
    25    14    24 1   
    26    15    25 1   
@<TRIPOS>SUBSTRUCTURE
     1 LIG         1 TEMP              0 ****  ****    0 ROOT
