@<TRIPOS>MOLECULE
LIG
   27    31     1     0     0
SMALL
bcc


@<TRIPOS>ATOM
      1 C            0.9910     0.3000     1.5080 c3         1 LIG      -0.097400
      2 C1           0.9530     1.3400     0.3690 c3         1 LIG      -0.052700
      3 C2           2.3440     1.1400    -0.2550 cx         1 LIG       0.046100
      4 O            3.3890     0.6240     0.5730 op         1 LIG      -0.378600
      5 C3           2.5940    -0.3380    -0.1260 cx         1 LIG       0.046100
      6 C4           1.3280    -0.8720     0.5630 c3         1 LIG      -0.052700
      7 C5           0.2240    -0.8130    -0.5340 c3         1 LIG      -0.073700
      8 C6          -0.0380     0.7390    -0.6700 c3         1 LIG      -0.073700
      9 C7          -1.5940     0.8290    -0.5370 c3         1 LIG       0.091600
     10 Cl          -2.2410     2.3460    -1.1360 cl         1 LIG      -0.080400
     11 C8          -2.0360     0.4120     0.8460 c2         1 LIG      -0.032800
     12 Cl1         -2.6470     1.4710     2.0180 cl         1 LIG      -0.006400
     13 C9          -1.8130    -0.9050     0.9610 c2         1 LIG      -0.032800
     14 Cl2         -2.0780    -1.8910     2.3130 cl         1 LIG      -0.006400
     15 C10         -1.2200    -1.3830    -0.3430 c3         1 LIG       0.091600
     16 Cl3         -1.3190    -3.1060    -0.6580 cl         1 LIG      -0.080400
     17 C11         -2.0450    -0.4620    -1.3160 c3         1 LIG       0.129800
     18 Cl4         -3.8290    -0.7640    -1.3250 cl         1 LIG      -0.093400
     19 Cl5         -1.5340    -0.5270    -3.0430 cl         1 LIG      -0.093400
     20 H            0.0830     0.1970     2.0890 hc         1 LIG       0.075200
     21 H1           1.7850     0.4980     2.2380 hc         1 LIG       0.075200
     22 H2           0.7500     2.3680     0.6720 hc         1 LIG       0.095700
     23 H3           2.5750     1.6710    -1.1650 h1         1 LIG       0.115700
     24 H4           3.0120    -0.9100    -0.9380 h1         1 LIG       0.115700
     25 H5           1.4630    -1.8430     1.0410 hc         1 LIG       0.095700
     26 H6           0.6440    -1.2000    -1.4730 hc         1 LIG       0.088700
     27 H7           0.2590     1.0770    -1.6730 hc         1 LIG       0.088700
@<TRIPOS>BOND
     1     1     2 1   
     2     2     3 1   
     3     3     4 1   
     4     4     5 1   
     5     5     6 1   
     6     6     7 1   
     7     7     8 1   
     8     8     9 1   
     9     9    10 1   
    10     9    11 1   
    11    11    12 1   
    12    11    13 2   
    13    13    14 1   
    14    13    15 1   
    15    15    16 1   
    16    15    17 1   
    17    17    18 1   
    18    17    19 1   
    19     6     1 1   
    20    15     7 1   
    21     8     2 1   
    22    17     9 1   
    23     5     3 1   
    24     1    20 1   
    25     1    21 1   
    26     2    22 1   
    27     3    23 1   
    28     5    24 1   
    29     6    25 1   
    30     7    26 1   
    31     8    27 1   
@<TRIPOS>SUBSTRUCTURE
     1 LIG         1 TEMP              0 ****  ****    0 ROOT
