@<TRIPOS>MOLECULE
LIG
   17    18     1     0     0
SMALL
bcc


@<TRIPOS>ATOM
      1 C            2.4130    -0.8240    -0.2150 ca         1 LIG       0.411200
      2 N            1.2520    -1.4610    -0.4780 nb         1 LIG      -0.656000
      3 C1           0.1040    -0.7890    -0.2770 ca         1 LIG       0.393600
      4 C2          -1.1100    -1.4120    -0.5360 ca         1 LIG      -0.164300
      5 C3          -2.3300    -0.7580    -0.3430 ca         1 LIG      -0.124000
      6 C4          -2.3470     0.5530     0.1210 ca         1 LIG      -0.127000
      7 C5          -1.1450     1.2030     0.3910 ca         1 LIG      -0.112000
      8 C6           0.0810     0.5420     0.1950 ca         1 LIG      -0.148300
      9 C7           1.3070     1.1680     0.4560 ca         1 LIG      -0.080000
     10 C8           2.4940     0.4760     0.2480 ca         1 LIG      -0.250300
     11 H            3.3100    -1.4100    -0.3950 h4         1 LIG       0.022100
     12 H1          -1.1030    -2.4370    -0.9000 ha         1 LIG       0.150000
     13 H2          -3.2610    -1.2760    -0.5560 ha         1 LIG       0.135000
     14 H3          -3.2930     1.0670     0.2740 ha         1 LIG       0.135000
     15 H4          -1.1670     2.2280     0.7530 ha         1 LIG       0.134000
     16 H5           1.3410     2.1910     0.8200 ha         1 LIG       0.138000
     17 H6           3.4540     0.9380     0.4430 ha         1 LIG       0.144000
@<TRIPOS>BOND
     1     1     2 ar  
     2     2     3 ar  
     3     3     4 ar  
     4     4     5 ar  
     5     5     6 ar  
     6     6     7 ar  
     7     7     8 ar  
     8     8     9 ar  
     9     9    10 ar  
    10    10     1 ar  
    11     8     3 ar  
    12     1    11 1   
    13     4    12 1   
    14     5    13 1   
    15     6    14 1   
    16     7    15 1   
    17     9    16 1   
    18    10    17 1   
@<TRIPOS>SUBSTRUCTURE
     1 LIG         1 TEMP              0 ****  ****    0 ROOT
