@<TRIPOS>MOLECULE
LIG
    5     4     1     0     0
SMALL
bcc


@<TRIPOS>ATOM
      1 C           -0.0040     0.0750     0.1960 c3         1 LIG       0.264500
      2 Cl           0.0230     1.6480    -0.6320 cl         1 LIG      -0.092400
      3 I           -1.6960    -0.9850    -0.4560 i          1 LIG      -0.146900
      4 I1           1.7050    -1.0030    -0.3800 i          1 LIG      -0.146900
      5 H           -0.0270     0.2660     1.2720 h3         1 LIG       0.120700
@<TRIPOS>BOND
     1     1     2 1   
     2     1     3 1   
     3     1     4 1   
     4     1     5 1   
@<TRIPOS>SUBSTRUCTURE
     1 LIG         1 TEMP              0 ****  ****    0 ROOT
