@<TRIPOS>MOLECULE
LIG
   14    14     1     0     0
SMALL
bcc


@<TRIPOS>ATOM
      1 N            0.6740    -3.2950     1.9360 n1         1 LIG      -0.309800
      2 C            0.5430    -2.2950     1.3630 cg         1 LIG       0.222800
      3 C1           0.3770    -1.0570     0.6530 ca         1 LIG      -0.001000
      4 C2           1.4840    -0.2230     0.4150 ca         1 LIG       0.074400
      5 Cl           3.0570    -0.7020     0.9880 cl         1 LIG      -0.013400
      6 C3           1.3200     0.9900    -0.2810 ca         1 LIG      -0.003600
      7 Cl1          2.6930     2.0190    -0.5730 cl         1 LIG      -0.017400
      8 C4           0.0440     1.3690    -0.7400 ca         1 LIG       0.074400
      9 Cl2         -0.1700     2.8670    -1.6020 cl         1 LIG      -0.013400
     10 C5          -1.0670     0.5390    -0.5060 ca         1 LIG      -0.001000
     11 C6          -2.3700     0.9250    -0.9740 cg         1 LIG       0.222800
     12 N1          -3.4220     1.2340    -1.3510 n1         1 LIG      -0.309800
     13 C7          -0.8950    -0.6710     0.1900 ca         1 LIG       0.087400
     14 Cl3         -2.2680    -1.7010     0.4830 cl         1 LIG      -0.015400
@<TRIPOS>BOND
     1     1     2 3   
     2     2     3 1   
     3     3     4 ar  
     4     4     5 1   
     5     4     6 ar  
     6     6     7 1   
     7     6     8 ar  
     8     8     9 1   
     9     8    10 ar  
    10    10    11 1   
    11    11    12 3   
    12    10    13 ar  
    13    13    14 1   
    14    13     3 ar  
@<TRIPOS>SUBSTRUCTURE
     1 LIG         1 TEMP              0 ****  ****    0 ROOT
