@<TRIPOS>MOLECULE
LIG
    6     5     1     0     0
SMALL
bcc


@<TRIPOS>ATOM
      1 C           -0.7670    -0.0630     0.0820 c2         1 LIG      -0.206000
      2 C1           0.5570     0.0460    -0.0590 c2         1 LIG       0.074800
      3 Cl           1.5950    -1.2740     0.3260 cl         1 LIG      -0.076400
      4 Cl1          1.2660     1.5080    -0.6300 cl         1 LIG      -0.076400
      5 H           -1.2220    -0.9790     0.4400 ha         1 LIG       0.142000
      6 H1          -1.4290     0.7620    -0.1590 ha         1 LIG       0.142000
@<TRIPOS>BOND
     1     1     2 2   
     2     2     3 1   
     3     2     4 1   
     4     1     5 1   
     5     1     6 1   
@<TRIPOS>SUBSTRUCTURE
     1 LIG         1 TEMP              0 ****  ****    0 ROOT
