@<TRIPOS>MOLECULE
LIG
   25    25     1     0     0
SMALL
bcc


@<TRIPOS>ATOM
      1 N            1.9730     0.4350     0.2570 nh         1 LIG      -0.849400
      2 C            1.0040    -0.4920    -0.1100 ca         1 LIG       0.935900
      3 N1           1.3370    -1.7450    -0.3580 nb         1 LIG      -0.809500
      4 C1           0.3040    -2.5090    -0.6750 ca         1 LIG       0.806000
      5 Cl           0.6610    -4.1480    -1.0060 cl         1 LIG      -0.118000
      6 N2          -0.9710    -2.1650    -0.7700 nb         1 LIG      -0.809500
      7 C2          -1.1880    -0.8900    -0.5100 ca         1 LIG       0.935900
      8 N3          -2.5090    -0.4740    -0.6170 nh         1 LIG      -0.849400
      9 C3          -2.9010     0.5640     0.3200 c3         1 LIG       0.217800
     10 C4          -4.3820     0.8650     0.1470 c3         1 LIG      -0.113600
     11 N4          -0.2360    -0.0240    -0.1760 nb         1 LIG      -0.847000
     12 C5           3.2800     0.2280    -0.3400 c3         1 LIG       0.217800
     13 C6           4.2110     1.3530     0.0860 c3         1 LIG      -0.113600
     14 H            1.5630     1.3510     0.1040 hn         1 LIG       0.447800
     15 H1          -3.0800    -1.3140    -0.5990 hn         1 LIG       0.447800
     16 H2          -2.7190     0.2420     1.3530 h1         1 LIG       0.055700
     17 H3          -2.3350     1.4860     0.1400 h1         1 LIG       0.055700
     18 H4          -4.5980     1.2010    -0.8720 hc         1 LIG       0.046367
     19 H5          -4.9900    -0.0250     0.3430 hc         1 LIG       0.046367
     20 H6          -4.6950     1.6520     0.8410 hc         1 LIG       0.046367
     21 H7           3.7120    -0.7250    -0.0120 h1         1 LIG       0.055700
     22 H8           3.2090     0.2180    -1.4340 h1         1 LIG       0.055700
     23 H9           5.2050     1.2100    -0.3480 hc         1 LIG       0.046367
     24 H10          4.3140     1.3850     1.1760 hc         1 LIG       0.046367
     25 H11          3.8300     2.3250    -0.2430 hc         1 LIG       0.046367
@<TRIPOS>BOND
     1     1     2 1   
     2     2     3 ar  
     3     3     4 ar  
     4     4     5 1   
     5     4     6 ar  
     6     6     7 ar  
     7     7     8 1   
     8     8     9 1   
     9     9    10 1   
    10     7    11 ar  
    11     1    12 1   
    12    12    13 1   
    13    11     2 ar  
    14     1    14 1   
    15     8    15 1   
    16     9    16 1   
    17     9    17 1   
    18    10    18 1   
    19    10    19 1   
    20    10    20 1   
    21    12    21 1   
    22    12    22 1   
    23    13    23 1   
    24    13    24 1   
    25    13    25 1   
@<TRIPOS>SUBSTRUCTURE
     1 LIG         1 TEMP              0 ****  ****    0 ROOT
