@<TRIPOS>MOLECULE
LIG
   20    19     1     0     0
SMALL
bcc


@<TRIPOS>ATOM
      1 C            1.1870     0.3190     0.8780 c3         1 LIG       0.108900
      2 O            1.1480     1.4050    -0.0440 os         1 LIG      -0.341000
      3 N            1.9760     2.4850     0.3510 no         1 LIG       0.383200
      4 O1           1.9560     3.4180    -0.4470 o          1 LIG      -0.164500
      5 O2           2.5840     2.3620     1.4160 o          1 LIG      -0.164500
      6 C1           0.2950    -0.8400     0.3960 c3         1 LIG       0.092100
      7 O3           0.8250    -1.2820    -0.8610 os         1 LIG      -0.346000
      8 N1           0.5370    -2.6350    -1.1650 no         1 LIG       0.384200
      9 O4          -0.1570    -3.2540    -0.3590 o          1 LIG      -0.164500
     10 O5           1.0350    -2.9990    -2.2260 o          1 LIG      -0.164500
     11 C2          -1.1850    -0.4330     0.2580 c3         1 LIG       0.108900
     12 O6          -1.3360     0.5410    -0.7720 os         1 LIG      -0.341000
     13 N2          -2.6760     0.9780    -0.9180 no         1 LIG       0.383200
     14 O7          -2.8130     1.8030    -1.8170 o          1 LIG      -0.164500
     15 O8          -3.5070     0.5000    -0.1450 o          1 LIG      -0.164500
     16 H            0.8370     0.6500     1.8650 h1         1 LIG       0.111950
     17 H1           2.2170    -0.0510     0.9540 h1         1 LIG       0.111950
     18 H2           0.3890    -1.6210     1.1630 h1         1 LIG       0.106700
     19 H3          -1.5280    -0.0300     1.2200 h1         1 LIG       0.111950
     20 H4          -1.7840    -1.3140     0.0000 h1         1 LIG       0.111950
@<TRIPOS>BOND
     1     1     2 1   
     2     2     3 1   
     3     3     4 1   
     4     3     5 1   
     5     1     6 1   
     6     6     7 1   
     7     7     8 1   
     8     8     9 1   
     9     8    10 1   
    10     6    11 1   
    11    11    12 1   
    12    12    13 1   
    13    13    14 1   
    14    13    15 1   
    15     1    16 1   
    16     1    17 1   
    17     6    18 1   
    18    11    19 1   
    19    11    20 1   
@<TRIPOS>SUBSTRUCTURE
     1 LIG         1 TEMP              0 ****  ****    0 ROOT
