@<TRIPOS>MOLECULE
LIG
   30    30     1     0     0
SMALL
bcc


@<TRIPOS>ATOM
      1 C           -0.3750     3.6760     0.5240 ca         1 LIG      -0.148000
      2 C1          -1.5830     3.1870     0.0240 ca         1 LIG      -0.104000
      3 C2          -1.8200     1.8090    -0.0350 ca         1 LIG      -0.178000
      4 C3          -0.8400     0.9110     0.3890 ca         1 LIG       0.126100
      5 O           -1.0160    -0.4460     0.4140 os         1 LIG      -0.332900
      6 C4          -1.6120    -1.0160    -0.7600 c3         1 LIG       0.143100
      7 C5          -2.9910    -1.5540    -0.3920 c3         1 LIG      -0.112100
      8 C6          -0.7070    -2.1550    -1.2210 c3         1 LIG      -0.112100
      9 C7           0.3640     1.4170     0.8910 ca         1 LIG       0.094100
     10 O1           1.3420     0.5480     1.3840 os         1 LIG      -0.360200
     11 C8           2.1250     0.0010     0.3830 c          1 LIG       0.738100
     12 O2           2.1020     0.2930    -0.8060 o          1 LIG      -0.566000
     13 N            2.9530    -0.9420     0.9310 n          1 LIG      -0.528900
     14 C9           3.7590    -1.8040     0.1120 c3         1 LIG       0.075300
     15 C10          0.6030     2.7890     0.9710 ca         1 LIG      -0.103000
     16 H           -0.1990     4.7480     0.5720 ha         1 LIG       0.137000
     17 H1          -2.3500     3.8820    -0.3110 ha         1 LIG       0.134000
     18 H2          -2.7820     1.4600    -0.3950 ha         1 LIG       0.141000
     19 H3          -1.6950    -0.2960    -1.5840 h1         1 LIG       0.056700
     20 H4          -3.4720    -2.0310    -1.2520 hc         1 LIG       0.047867
     21 H5          -3.6410    -0.7510    -0.0330 hc         1 LIG       0.047867
     22 H6          -2.9220    -2.2860     0.4210 hc         1 LIG       0.047867
     23 H7          -1.1250    -2.6670    -2.0930 hc         1 LIG       0.047867
     24 H8          -0.5560    -2.8880    -0.4200 hc         1 LIG       0.047867
     25 H9           0.2830    -1.7720    -1.4870 hc         1 LIG       0.047867
     26 H10          2.7450    -1.1960     1.8870 hn         1 LIG       0.319500
     27 H11          3.1220    -2.5920    -0.2980 h1         1 LIG       0.048367
     28 H12          4.2100    -1.2390    -0.7080 h1         1 LIG       0.048367
     29 H13          4.5400    -2.2470     0.7350 h1         1 LIG       0.048367
     30 H14          1.5410     3.1620     1.3710 ha         1 LIG       0.149000
@<TRIPOS>BOND
     1     1     2 ar  
     2     2     3 ar  
     3     3     4 ar  
     4     4     5 1   
     5     5     6 1   
     6     6     7 1   
     7     6     8 1   
     8     4     9 ar  
     9     9    10 1   
    10    10    11 1   
    11    11    12 2   
    12    11    13 1   
    13    13    14 1   
    14     9    15 ar  
    15    15     1 ar  
    16     1    16 1   
    17     2    17 1   
    18     3    18 1   
    19     6    19 1   
    20     7    20 1   
    21     7    21 1   
    22     7    22 1   
    23     8    23 1   
    24     8    24 1   
    25     8    25 1   
    26    13    26 1   
    27    14    27 1   
    28    14    28 1   
    29    14    29 1   
    30    15    30 1   
@<TRIPOS>SUBSTRUCTURE
     1 LIG         1 TEMP              0 ****  ****    0 ROOT
