@<TRIPOS>MOLECULE
LIG
   26    29     1     0     0
SMALL
bcc


@<TRIPOS>ATOM
      1 C            2.4880     0.3880    -0.8570 c2         1 LIG      -0.176200
      2 C1           2.6030     0.2640     0.4780 c2         1 LIG      -0.176200
      3 C2           1.3610    -0.4600     0.9750 c3         1 LIG      -0.033500
      4 C3           1.2250    -1.3910    -0.2350 c3         1 LIG      -0.088400
      5 C4           1.1690    -0.2520    -1.2600 c3         1 LIG      -0.033500
      6 C5           0.0750     0.7160    -0.7390 c3         1 LIG      -0.072700
      7 C6           0.2110     0.5700     0.8340 c3         1 LIG      -0.072700
      8 C7          -1.2590     0.2700     1.2690 c3         1 LIG       0.091600
      9 Cl          -1.5360     0.5420     2.9810 cl         1 LIG      -0.083400
     10 C8          -1.7100    -1.0660     0.7240 c2         1 LIG      -0.032800
     11 Cl1         -1.9550    -2.4530     1.6650 cl         1 LIG      -0.009400
     12 C9          -1.8250    -0.9420    -0.6060 c2         1 LIG      -0.032800
     13 Cl2         -2.2490    -2.1370    -1.7300 cl         1 LIG      -0.009400
     14 C10         -1.4520     0.4780    -0.9650 c3         1 LIG       0.091600
     15 Cl3         -2.0110     1.0550    -2.5260 cl         1 LIG      -0.083400
     16 C11         -2.0670     1.1980     0.2900 c3         1 LIG       0.130800
     17 Cl4         -1.6930     2.9560     0.4210 cl         1 LIG      -0.095400
     18 Cl5         -3.8680     1.0730     0.4340 cl         1 LIG      -0.095400
     19 H            3.1780     0.8860    -1.5220 ha         1 LIG       0.150000
     20 H1           3.4040     0.6430     1.0960 ha         1 LIG       0.150000
     21 H2           1.4730    -0.9500     1.9420 hc         1 LIG       0.088700
     22 H3           0.3680    -2.0550    -0.2230 hc         1 LIG       0.061200
     23 H4           2.1010    -2.0450    -0.3720 hc         1 LIG       0.061200
     24 H5           1.1060    -0.5550    -2.3050 hc         1 LIG       0.088700
     25 H6           0.3310     1.7420    -1.0420 hc         1 LIG       0.089700
     26 H7           0.5310     1.5260     1.2720 hc         1 LIG       0.089700
@<TRIPOS>BOND
     1     1     2 2   
     2     2     3 1   
     3     3     4 1   
     4     4     5 1   
     5     5     6 1   
     6     6     7 1   
     7     7     8 1   
     8     8     9 1   
     9     8    10 1   
    10    10    11 1   
    11    10    12 2   
    12    12    13 1   
    13    12    14 1   
    14    14    15 1   
    15    14    16 1   
    16    16    17 1   
    17    16    18 1   
    18     5     1 1   
    19    14     6 1   
    20     7     3 1   
    21    16     8 1   
    22     1    19 1   
    23     2    20 1   
    24     3    21 1   
    25     4    22 1   
    26     4    23 1   
    27     5    24 1   
    28     6    25 1   
    29     7    26 1   
@<TRIPOS>SUBSTRUCTURE
     1 LIG         1 TEMP              0 ****  ****    0 ROOT
