@<TRIPOS>MOLECULE
LIG
   19    19     1     0     0
SMALL
bcc


@<TRIPOS>ATOM
      1 C            1.4110    -1.1910    -0.1010 ca         1 LIG      -0.026000
      2 C1           0.0670    -1.5440    -0.2630 ca         1 LIG      -0.160000
      3 C2          -0.9490    -0.5770    -0.1810 ca         1 LIG       0.044700
      4 C3          -2.3790    -1.0060    -0.3660 c3         1 LIG      -0.078800
      5 C4          -0.5730     0.7530     0.0920 ca         1 LIG      -0.196200
      6 N           -1.5770     1.8050     0.2170 no         1 LIG       0.317200
      7 O           -1.3990     2.8300    -0.4540 o          1 LIG      -0.199000
      8 O1          -2.5190     1.6060     0.9940 o          1 LIG      -0.199000
      9 C5           0.7690     1.1280     0.2510 ca         1 LIG      -0.007000
     10 C6           1.7570     0.1430     0.1520 ca         1 LIG      -0.198200
     11 N1           3.1690     0.5080     0.3210 no         1 LIG       0.318200
     12 O2           3.4250     1.6820     0.6200 o          1 LIG      -0.196000
     13 O3           4.0170    -0.3800     0.1560 o          1 LIG      -0.196000
     14 H            2.1720    -1.9670    -0.1740 ha         1 LIG       0.182000
     15 H1          -0.1810    -2.5880    -0.4580 ha         1 LIG       0.162000
     16 H2          -2.9120    -0.3140    -1.0260 hc         1 LIG       0.074700
     17 H3          -2.8870    -1.0600     0.6020 hc         1 LIG       0.074700
     18 H4          -2.4380    -1.9950    -0.8330 hc         1 LIG       0.074700
     19 H5           1.0290     2.1670     0.4500 ha         1 LIG       0.208000
@<TRIPOS>BOND
     1     1     2 ar  
     2     2     3 ar  
     3     3     4 1   
     4     3     5 ar  
     5     5     6 1   
     6     6     7 1   
     7     6     8 1   
     8     5     9 ar  
     9     9    10 ar  
    10    10    11 1   
    11    11    12 1   
    12    11    13 1   
    13    10     1 ar  
    14     1    14 1   
    15     2    15 1   
    16     4    16 1   
    17     4    17 1   
    18     4    18 1   
    19     9    19 1   
@<TRIPOS>SUBSTRUCTURE
     1 LIG         1 TEMP              0 ****  ****    0 ROOT
