@<TRIPOS>MOLECULE
LIG
   29    29     1     0     0
SMALL
bcc


@<TRIPOS>ATOM
      1 N            2.6370     1.0730     1.0810 nh         1 LIG      -0.821900
      2 C            1.6620     0.2190     0.5880 ca         1 LIG       0.923900
      3 N1           1.9960    -0.8610    -0.0920 nb         1 LIG      -0.791000
      4 C1           0.9580    -1.5810    -0.4810 ca         1 LIG       0.803000
      5 Cl           1.3170    -2.9980    -1.3680 cl         1 LIG      -0.105000
      6 N2          -0.3270    -1.3370    -0.2760 nb         1 LIG      -0.792000
      7 C2          -0.5490    -0.2350     0.4080 ca         1 LIG       0.927900
      8 N3          -1.8410     0.1610     0.7200 nh         1 LIG      -0.833900
      9 C3          -2.9140    -0.0700    -0.2660 c3         1 LIG       0.319300
     10 C4          -2.5540     0.3510    -1.6500 c1         1 LIG       0.190700
     11 N4          -2.2780     0.7070    -2.7210 n1         1 LIG      -0.348800
     12 C5          -3.3660    -1.5390    -0.2500 c3         1 LIG      -0.102600
     13 C6          -4.1140     0.7900     0.1890 c3         1 LIG      -0.102600
     14 N5           0.4080     0.5710     0.8530 nb         1 LIG      -0.839000
     15 C7           3.8700     1.1760     0.3190 c3         1 LIG       0.201800
     16 C8           4.9040     0.1820     0.8240 c3         1 LIG      -0.129100
     17 H            2.1810     1.9560     1.2880 hn         1 LIG       0.433800
     18 H1          -1.7530     1.1270     1.0220 hn         1 LIG       0.443800
     19 H2          -2.6170    -2.2160    -0.6720 hc         1 LIG       0.057867
     20 H3          -3.5790    -1.8770     0.7710 hc         1 LIG       0.057867
     21 H4          -4.2770    -1.6790    -0.8460 hc         1 LIG       0.057867
     22 H5          -3.8580     1.8570     0.1990 hc         1 LIG       0.057867
     23 H6          -4.4320     0.5220     1.2040 hc         1 LIG       0.057867
     24 H7          -4.9740     0.6670    -0.4790 hc         1 LIG       0.057867
     25 H8           4.2720     2.1860     0.4600 h1         1 LIG       0.067700
     26 H9           3.7040     1.0580    -0.7580 h1         1 LIG       0.067700
     27 H10          5.8500     0.3160     0.2890 hc         1 LIG       0.045700
     28 H11          4.5790    -0.8520     0.6800 hc         1 LIG       0.045700
     29 H12          5.0950     0.3260     1.8930 hc         1 LIG       0.045700
@<TRIPOS>BOND
     1     1     2 1   
     2     2     3 ar  
     3     3     4 ar  
     4     4     5 1   
     5     4     6 ar  
     6     6     7 ar  
     7     7     8 1   
     8     8     9 1   
     9     9    10 1   
    10    10    11 3   
    11     9    12 1   
    12     9    13 1   
    13     7    14 ar  
    14     1    15 1   
    15    15    16 1   
    16    14     2 ar  
    17     1    17 1   
    18     8    18 1   
    19    12    19 1   
    20    12    20 1   
    21    12    21 1   
    22    13    22 1   
    23    13    23 1   
    24    13    24 1   
    25    15    25 1   
    26    15    26 1   
    27    16    27 1   
    28    16    28 1   
    29    16    29 1   
@<TRIPOS>SUBSTRUCTURE
     1 LIG         1 TEMP              0 ****  ****    0 ROOT
