@<TRIPOS>MOLECULE
LIG
   13    13     1     0     0
SMALL
bcc


@<TRIPOS>ATOM
      1 O            2.4240     0.5440    -0.0430 oh         1 LIG      -0.483100
      2 C            1.0860     0.2600    -0.0170 ca         1 LIG       0.132100
      3 C1           0.6560    -1.0620    -0.1420 ca         1 LIG      -0.207000
      4 C2          -0.7100    -1.3510    -0.1160 ca         1 LIG      -0.090000
      5 C3          -1.6420    -0.3250     0.0340 ca         1 LIG      -0.158000
      6 C4          -1.2110     0.9970     0.1580 ca         1 LIG      -0.094000
      7 C5           0.1540     1.2920     0.1330 ca         1 LIG      -0.012600
      8 Cl           0.6470     2.9380     0.2900 cl         1 LIG      -0.071400
      9 H            2.9250    -0.2790    -0.1520 ho         1 LIG       0.422000
     10 H1           1.3660    -1.8750    -0.2600 ha         1 LIG       0.137000
     11 H2          -1.0490    -2.3810    -0.2130 ha         1 LIG       0.137000
     12 H3          -2.7050    -0.5530     0.0530 ha         1 LIG       0.139000
     13 H4          -1.9420     1.7940     0.2750 ha         1 LIG       0.148000
@<TRIPOS>BOND
     1     1     2 1   
     2     2     3 ar  
     3     3     4 ar  
     4     4     5 ar  
     5     5     6 ar  
     6     6     7 ar  
     7     7     8 1   
     8     7     2 ar  
     9     1     9 1   
    10     3    10 1   
    11     4    11 1   
    12     5    12 1   
    13     6    13 1   
@<TRIPOS>SUBSTRUCTURE
     1 LIG         1 TEMP              0 ****  ****    0 ROOT
