@<TRIPOS>MOLECULE
LIG
    5     4     1     0     0
SMALL
bcc


@<TRIPOS>ATOM
      1 C           -0.0020     0.0200     0.2080 c3         1 LIG       0.190500
      2 Br          -0.0720     1.8130    -0.5580 br         1 LIG      -0.061400
      3 I           -1.6570    -1.0650    -0.4780 i          1 LIG      -0.129900
      4 I1           1.7420    -0.9270    -0.4660 i          1 LIG      -0.129900
      5 H           -0.0110     0.1590     1.2930 h3         1 LIG       0.130700
@<TRIPOS>BOND
     1     1     2 1   
     2     1     3 1   
     3     1     4 1   
     4     1     5 1   
@<TRIPOS>SUBSTRUCTURE
     1 LIG         1 TEMP              0 ****  ****    0 ROOT
