@<TRIPOS>MOLECULE
LIG
   41    41     1     0     0
SMALL
bcc


@<TRIPOS>ATOM
      1 C            0.8180    -1.6860     1.2260 ca         1 LIG      -0.152000
      2 C1           2.0770    -2.2860     1.2180 ca         1 LIG      -0.126000
      3 C2           3.2180    -1.5420     0.8920 ca         1 LIG      -0.023100
      4 S            4.7950    -2.3860     0.9080 ss         1 LIG      -0.156000
      5 C3           4.7880    -3.0100    -0.7920 c3         1 LIG      -0.076000
      6 C4           3.0920    -0.1720     0.5910 ca         1 LIG      -0.049300
      7 C5           4.2850     0.6880     0.2710 c3         1 LIG      -0.062800
      8 C6           1.8130     0.4170     0.6000 ca         1 LIG      -0.129000
      9 C7           0.6830    -0.3380     0.9050 ca         1 LIG       0.138100
     10 O           -0.5910     0.1540     0.9280 os         1 LIG      -0.503500
     11 P           -1.0760     1.5270     0.2330 p5         1 LIG       1.634400
     12 O1          -0.3640     2.7370     0.7640 o          1 LIG      -0.829300
     13 O2          -2.6420     1.5410     0.6200 os         1 LIG      -0.568200
     14 C8          -2.9700     1.8630     1.9600 c3         1 LIG       0.158400
     15 C9          -4.4420     1.5800     2.1760 c3         1 LIG      -0.095100
     16 N           -0.9730     1.3210    -1.3860 n3         1 LIG      -0.979300
     17 C10         -1.8420     0.4730    -2.1910 c3         1 LIG       0.250500
     18 C11         -3.2470     1.0530    -2.3400 c3         1 LIG      -0.119100
     19 C12         -1.8810    -0.9730    -1.7080 c3         1 LIG      -0.119100
     20 H           -0.0590    -2.2760     1.4820 ha         1 LIG       0.139000
     21 H1           2.1610    -3.3390     1.4750 ha         1 LIG       0.131000
     22 H2           5.7150    -3.5590    -0.9770 h1         1 LIG       0.068700
     23 H3           4.7250    -2.1840    -1.5060 h1         1 LIG       0.068700
     24 H4           3.9460    -3.6880    -0.9480 h1         1 LIG       0.068700
     25 H5           4.7900     0.3220    -0.6280 hc         1 LIG       0.054700
     26 H6           4.9860     0.6980     1.1120 hc         1 LIG       0.054700
     27 H7           3.9930     1.7260     0.0800 hc         1 LIG       0.054700
     28 H8           1.7290     1.4810     0.3890 ha         1 LIG       0.159000
     29 H9          -2.7600     2.9210     2.1390 h1         1 LIG       0.052700
     30 H10         -2.3690     1.2600     2.6470 h1         1 LIG       0.052700
     31 H11         -5.0540     2.1700     1.4840 hc         1 LIG       0.045033
     32 H12         -4.6650     0.5260     1.9780 hc         1 LIG       0.045033
     33 H13         -4.7390     1.8180     3.2010 hc         1 LIG       0.045033
     34 H14         -0.0100     1.1520    -1.6510 hn         1 LIG       0.442800
     35 H15         -1.4090     0.4640    -3.2000 h1         1 LIG       0.040700
     36 H16         -3.2090     2.1040    -2.6470 hc         1 LIG       0.047367
     37 H17         -3.8300     0.9850    -1.4170 hc         1 LIG       0.047367
     38 H18         -3.8020     0.5060    -3.1110 hc         1 LIG       0.047367
     39 H19         -2.4470    -1.5950    -2.4100 hc         1 LIG       0.047367
     40 H20         -0.8720    -1.3920    -1.6410 hc         1 LIG       0.047367
     41 H21         -2.3600    -1.0630    -0.7270 hc         1 LIG       0.047367
@<TRIPOS>BOND
     1     1     2 ar  
     2     2     3 ar  
     3     3     4 1   
     4     4     5 1   
     5     3     6 ar  
     6     6     7 1   
     7     6     8 ar  
     8     8     9 ar  
     9     9    10 1   
    10    10    11 1   
    11    11    12 2   
    12    11    13 1   
    13    13    14 1   
    14    14    15 1   
    15    11    16 1   
    16    16    17 1   
    17    17    18 1   
    18    17    19 1   
    19     9     1 ar  
    20     1    20 1   
    21     2    21 1   
    22     5    22 1   
    23     5    23 1   
    24     5    24 1   
    25     7    25 1   
    26     7    26 1   
    27     7    27 1   
    28     8    28 1   
    29    14    29 1   
    30    14    30 1   
    31    15    31 1   
    32    15    32 1   
    33    15    33 1   
    34    16    34 1   
    35    17    35 1   
    36    18    36 1   
    37    18    37 1   
    38    18    38 1   
    39    19    39 1   
    40    19    40 1   
    41    19    41 1   
@<TRIPOS>SUBSTRUCTURE
     1 LIG         1 TEMP              0 ****  ****    0 ROOT
