@<TRIPOS>MOLECULE
LIG
   14    14     1     0     0
SMALL
bcc


@<TRIPOS>ATOM
      1 C           -1.2430     1.0870    -0.3290 cc         1 LIG      -0.325000
      2 C1           0.1470     1.1980    -0.2190 cd         1 LIG       0.000000
      3 C2           0.8950     0.0590     0.0730 cd         1 LIG      -0.283300
      4 N            2.3510     0.1550     0.1930 no         1 LIG       0.240300
      5 O            2.9860    -0.8800     0.4540 o          1 LIG      -0.309000
      6 O1           2.8800     1.2660     0.0280 o          1 LIG      -0.309000
      7 C3           0.2650    -1.1710     0.2530 cd         1 LIG       0.000000
      8 C4          -1.1280    -1.2440     0.1340 cc         1 LIG      -0.325000
      9 C5          -1.9350    -0.1270    -0.1590 c          1 LIG       0.532100
     10 O2          -3.2010    -0.2100    -0.2630 o          1 LIG      -0.693100
     11 H           -1.8250     1.9810    -0.5580 ha         1 LIG       0.116000
     12 H1           0.6090     2.1690    -0.3630 ha         1 LIG       0.121000
     13 H2           0.8190    -2.0750     0.4810 ha         1 LIG       0.121000
     14 H3          -1.6180    -2.2070     0.2750 ha         1 LIG       0.116000
@<TRIPOS>BOND
     1     1     2 2   
     2     2     3 1   
     3     3     4 2   
     4     4     5 1   
     5     4     6 1   
     6     3     7 1   
     7     7     8 2   
     8     8     9 1   
     9     9    10 2   
    10     9     1 1   
    11     1    11 1   
    12     2    12 1   
    13     7    13 1   
    14     8    14 1   
@<TRIPOS>SUBSTRUCTURE
     1 LIG         1 TEMP              0 ****  ****    0 ROOT
