@<TRIPOS>MOLECULE
LIG
   17    16     1     0     0
SMALL
bcc


@<TRIPOS>ATOM
      1 O           -2.3200    -1.3050    -2.1920 o          1 LIG      -0.693200
      2 S           -1.6290    -0.2370    -1.4670 s6         1 LIG       1.433800
      3 O1          -2.5210     0.7780    -0.9090 o          1 LIG      -0.693200
      4 O2          -0.4850     0.3170    -2.1890 o          1 LIG      -0.693200
      5 C           -0.8810    -1.0500    -0.0330 c3         1 LIG       0.345400
      6 F            0.1530    -1.8880    -0.3820 f          1 LIG      -0.246300
      7 F1          -1.7700    -1.8750     0.6240 f          1 LIG      -0.246300
      8 C1          -0.3620    -0.0330     0.9590 c3         1 LIG       0.349600
      9 F2           0.2150    -0.7490     2.0000 f          1 LIG      -0.220800
     10 F3          -1.3950     0.6210     1.5800 f          1 LIG      -0.220800
     11 C2           0.6680     0.9850     0.5090 c3         1 LIG       0.363600
     12 F4           1.0200     1.7230     1.6300 f          1 LIG      -0.189800
     13 F5           0.1670     1.9170    -0.3350 f          1 LIG      -0.189800
     14 C3           1.9440     0.3510    -0.0230 c3         1 LIG       0.579900
     15 F6           2.5040    -0.4740     0.9020 f          1 LIG      -0.225967
     16 F7           1.8060    -0.3780    -1.1430 f          1 LIG      -0.225967
     17 F8           2.8860     1.2980    -0.2880 f          1 LIG      -0.225967
@<TRIPOS>BOND
     1     1     2 1   
     2     2     3 1   
     3     2     4 1   
     4     2     5 1   
     5     5     6 1   
     6     5     7 1   
     7     5     8 1   
     8     8     9 1   
     9     8    10 1   
    10     8    11 1   
    11    11    12 1   
    12    11    13 1   
    13    11    14 1   
    14    14    15 1   
    15    14    16 1   
    16    14    17 1   
@<TRIPOS>SUBSTRUCTURE
     1 LIG         1 TEMP              0 ****  ****    0 ROOT
