@<TRIPOS>MOLECULE
LIG
   12    12     1     0     0
SMALL
bcc


@<TRIPOS>ATOM
      1 O            2.3860    -0.6590    -0.1400 oh         1 LIG      -0.567600
      2 C            1.0750    -0.4260    -0.0320 cc         1 LIG       0.531900
      3 N            0.2840    -1.3840     0.3000 nd         1 LIG      -0.509300
      4 N1          -1.0390    -1.0320     0.3810 n          1 LIG      -0.282900
      5 C1          -1.5470     0.2240     0.1400 c          1 LIG       0.657700
      6 O1          -2.7390     0.4940     0.2240 o          1 LIG      -0.617500
      7 C2          -0.5600     1.2630    -0.2360 cd         1 LIG      -0.195200
      8 C3           0.7380     0.9600    -0.3260 cc         1 LIG      -0.162600
      9 H            2.5330    -1.5970     0.0690 ho         1 LIG       0.440000
     10 H1          -1.6940    -1.7630     0.6410 hn         1 LIG       0.361500
     11 H2          -0.9460     2.2550    -0.4280 ha         1 LIG       0.174000
     12 H3           1.5090     1.6660    -0.5940 ha         1 LIG       0.169000
@<TRIPOS>BOND
     1     1     2 1   
     2     2     3 2   
     3     3     4 1   
     4     4     5 1   
     5     5     6 2   
     6     5     7 1   
     7     7     8 2   
     8     8     2 1   
     9     1     9 1   
    10     4    10 1   
    11     7    11 1   
    12     8    12 1   
@<TRIPOS>SUBSTRUCTURE
     1 LIG         1 TEMP              0 ****  ****    0 ROOT
