@<TRIPOS>MOLECULE
LIG
    4     3     1     0     0
SMALL
bcc


@<TRIPOS>ATOM
      1 N           -0.2020     0.0060     0.3010 n3         1 LIG      -0.674500
      2 Cl           1.5160    -0.0590    -0.0820 cl         1 LIG      -0.028100
      3 H           -0.6250     0.8400    -0.1040 hn         1 LIG       0.351800
      4 H1          -0.6890    -0.7870    -0.1150 hn         1 LIG       0.351800
@<TRIPOS>BOND
     1     1     2 1   
     2     1     3 1   
     3     1     4 1   
@<TRIPOS>SUBSTRUCTURE
     1 LIG         1 TEMP              0 ****  ****    0 ROOT
