@<TRIPOS>MOLECULE
LIG
    8     7     1     0     0
SMALL
bcc


@<TRIPOS>ATOM
      1 Cl          -1.4220    -1.3090    -1.1160 cl         1 LIG      -0.073400
      2 C           -0.7760    -0.0830     0.0550 c3         1 LIG       0.221200
      3 Cl1         -1.2970    -0.6250     1.7050 cl         1 LIG      -0.073400
      4 Cl2         -1.6610     1.4640    -0.2810 cl         1 LIG      -0.073400
      5 C1           0.7760     0.0830    -0.0550 c3         1 LIG       0.221200
      6 Cl3          1.4220     1.3090     1.1160 cl         1 LIG      -0.073400
      7 Cl4          1.2970     0.6250    -1.7050 cl         1 LIG      -0.073400
      8 Cl5          1.6610    -1.4640     0.2810 cl         1 LIG      -0.073400
@<TRIPOS>BOND
     1     1     2 1   
     2     2     3 1   
     3     2     4 1   
     4     2     5 1   
     5     5     6 1   
     6     5     7 1   
     7     5     8 1   
@<TRIPOS>SUBSTRUCTURE
     1 LIG         1 TEMP              0 ****  ****    0 ROOT
