@<TRIPOS>MOLECULE
LIG
    4     3     1     0     0
SMALL
bcc


@<TRIPOS>ATOM
      1 O           -0.0830     1.2390    -0.0030 o          1 LIG      -0.699700
      2 N           -0.0000     0.0000     0.0000 no         1 LIG       0.535700
      3 O1           1.1140    -0.5470     0.0370 o          1 LIG      -0.418000
      4 O2          -1.0310    -0.6920    -0.0350 o          1 LIG      -0.418000
@<TRIPOS>BOND
     1     1     2 2   
     2     2     3 1   
     3     2     4 1   
@<TRIPOS>SUBSTRUCTURE
     1 LIG         1 TEMP              0 ****  ****    0 ROOT
