@<TRIPOS>MOLECULE
LIG
    5     4     1     0     0
SMALL
bcc


@<TRIPOS>ATOM
      1 O           -1.3710     0.3030    -0.9420 oh         1 LIG      -0.338600
      2 Cl           0.1590     0.9110    -0.5300 cl         1 LIG       0.691200
      3 O1           1.1230    -0.4050    -0.0430 oh         1 LIG      -0.338600
      4 H           -1.4460    -0.6710    -0.8570 ho         1 LIG       0.493000
      5 H1           1.5350    -0.1380     0.8230 ho         1 LIG       0.493000
@<TRIPOS>BOND
     1     1     2 1   
     2     2     3 1   
     3     1     4 1   
     4     3     5 1   
@<TRIPOS>SUBSTRUCTURE
     1 LIG         1 TEMP              0 ****  ****    0 ROOT
