@<TRIPOS>MOLECULE
LIG
    5     4     1     0     0
SMALL
bcc


@<TRIPOS>ATOM
      1 C           -0.0340    -0.0480     0.1670 c3         1 LIG       0.193000
      2 Cl          -0.7770    -1.4660    -0.5890 cl         1 LIG      -0.092400
      3 Br          -0.9780     1.5530    -0.4100 br         1 LIG      -0.080400
      4 I            1.9610     0.0790    -0.4160 i          1 LIG      -0.142900
      5 H           -0.1730    -0.1170     1.2480 h3         1 LIG       0.122700
@<TRIPOS>BOND
     1     1     2 1   
     2     1     3 1   
     3     1     4 1   
     4     1     5 1   
@<TRIPOS>SUBSTRUCTURE
     1 LIG         1 TEMP              0 ****  ****    0 ROOT
