@<TRIPOS>MOLECULE
LIG
   27    26     1     0     0
SMALL
bcc


@<TRIPOS>ATOM
      1 C           -0.0350    -0.1120     0.5440 c2         1 LIG       0.370200
      2 N            0.7110    -0.2670    -0.5030 n2         1 LIG      -0.391200
      3 O            2.0210    -0.5740    -0.0880 os         1 LIG      -0.241600
      4 C1           2.8630    -0.6750    -1.1680 c          1 LIG       0.754100
      5 O1           2.5630    -0.5170    -2.3450 o          1 LIG      -0.526000
      6 N1           4.1220    -0.9990    -0.7340 n          1 LIG      -0.532900
      7 C2           5.1900    -1.2820    -1.6530 c3         1 LIG       0.074300
      8 C3          -1.5170     0.2390     0.4500 c3         1 LIG      -0.050000
      9 S           -2.3950    -1.0930     1.3840 s4         1 LIG       0.263600
     10 O2          -1.9220    -1.0360     2.8080 o          1 LIG      -0.497200
     11 C4          -4.0830    -0.4560     1.3440 c3         1 LIG      -0.130800
     12 C5          -1.9900     0.2700    -1.0050 c3         1 LIG      -0.076600
     13 C6          -1.6880     1.6100     1.1080 c3         1 LIG      -0.076600
     14 H            0.3890    -0.2130     1.5620 h4         1 LIG       0.024800
     15 H1           4.2100    -1.2460     0.2420 hn         1 LIG       0.323500
     16 H2           5.1870    -0.5550    -2.4700 h1         1 LIG       0.051033
     17 H3           6.1380    -1.2310    -1.1110 h1         1 LIG       0.051033
     18 H4           5.0490    -2.2860    -2.0600 h1         1 LIG       0.051033
     19 H5          -4.4430    -0.3890     0.3160 h1         1 LIG       0.087700
     20 H6          -4.1470     0.5150     1.8380 h1         1 LIG       0.087700
     21 H7          -4.7210    -1.1610     1.8840 h1         1 LIG       0.087700
     22 H8          -3.0380     0.5740    -1.0910 hc         1 LIG       0.049367
     23 H9          -1.4040     0.9850    -1.5950 hc         1 LIG       0.049367
     24 H10         -1.8890    -0.7100    -1.4860 hc         1 LIG       0.049367
     25 H11         -2.7110     1.9880     1.0170 hc         1 LIG       0.049367
     26 H12         -1.4310     1.5880     2.1730 hc         1 LIG       0.049367
     27 H13         -1.0300     2.3510     0.6380 hc         1 LIG       0.049367
@<TRIPOS>BOND
     1     1     2 2   
     2     2     3 1   
     3     3     4 1   
     4     4     5 2   
     5     4     6 1   
     6     6     7 1   
     7     1     8 1   
     8     8     9 1   
     9     9    10 2   
    10     9    11 1   
    11     8    12 1   
    12     8    13 1   
    13     1    14 1   
    14     6    15 1   
    15     7    16 1   
    16     7    17 1   
    17     7    18 1   
    18    11    19 1   
    19    11    20 1   
    20    11    21 1   
    21    12    22 1   
    22    12    23 1   
    23    12    24 1   
    24    13    25 1   
    25    13    26 1   
    26    13    27 1   
@<TRIPOS>SUBSTRUCTURE
     1 LIG         1 TEMP              0 ****  ****    0 ROOT
