@<TRIPOS>MOLECULE
LIG
    6     5     1     0     0
SMALL
bcc


@<TRIPOS>ATOM
      1 Cl           1.6310    -1.3410    -0.5210 cl         1 LIG      -0.031400
      2 C            0.6700     0.0270    -0.0480 c2         1 LIG       0.062800
      3 Cl1          1.5750     1.4720     0.2910 cl         1 LIG      -0.031400
      4 C1          -0.6700    -0.0270     0.0480 c2         1 LIG       0.062800
      5 Cl2         -1.5750    -1.4720    -0.2910 cl         1 LIG      -0.031400
      6 Cl3         -1.6310     1.3410     0.5210 cl         1 LIG      -0.031400
@<TRIPOS>BOND
     1     1     2 1   
     2     2     3 1   
     3     2     4 2   
     4     4     5 1   
     5     4     6 1   
@<TRIPOS>SUBSTRUCTURE
     1 LIG         1 TEMP              0 ****  ****    0 ROOT
