@<TRIPOS>MOLECULE
LIG
   18    18     1     0     0
SMALL
bcc


@<TRIPOS>ATOM
      1 C            2.5860     0.0810    -0.2480 ca         1 LIG      -0.133000
      2 C1           1.7750     0.4990    -1.3030 ca         1 LIG      -0.128000
      3 C2           0.3970     0.6210    -1.1200 ca         1 LIG      -0.128000
      4 C3          -0.1830     0.3300     0.1220 ca         1 LIG      -0.077300
      5 C4          -1.6730     0.4440     0.3160 c3         1 LIG      -0.038100
      6 C5          -2.3880    -0.8570    -0.0150 c3         1 LIG      -0.089100
      7 C6           0.6400    -0.0960     1.1740 ca         1 LIG      -0.128000
      8 C7           2.0180    -0.2170     0.9890 ca         1 LIG      -0.128000
      9 H            3.6590    -0.0140    -0.3920 ha         1 LIG       0.130000
     10 H1           2.2170     0.7280    -2.2690 ha         1 LIG       0.130000
     11 H2          -0.2230     0.9430    -1.9530 ha         1 LIG       0.130000
     12 H3          -2.0660     1.2530    -0.3130 hc         1 LIG       0.045700
     13 H4          -1.8900     0.7340     1.3520 hc         1 LIG       0.045700
     14 H5          -2.0410    -1.6750     0.6250 hc         1 LIG       0.036033
     15 H6          -3.4670    -0.7440     0.1350 hc         1 LIG       0.036033
     16 H7          -2.2190    -1.1500    -1.0560 hc         1 LIG       0.036033
     17 H8           0.2100    -0.3360     2.1440 ha         1 LIG       0.130000
     18 H9           2.6490    -0.5450     1.8110 ha         1 LIG       0.130000
@<TRIPOS>BOND
     1     1     2 ar  
     2     2     3 ar  
     3     3     4 ar  
     4     4     5 1   
     5     5     6 1   
     6     4     7 ar  
     7     7     8 ar  
     8     8     1 ar  
     9     1     9 1   
    10     2    10 1   
    11     3    11 1   
    12     5    12 1   
    13     5    13 1   
    14     6    14 1   
    15     6    15 1   
    16     6    16 1   
    17     7    17 1   
    18     8    18 1   
@<TRIPOS>SUBSTRUCTURE
     1 LIG         1 TEMP              0 ****  ****    0 ROOT
