@<TRIPOS>MOLECULE
LIG
   49    52     1     0     0
SMALL
bcc


@<TRIPOS>ATOM
      1 O            3.5350    -0.4870     2.3260 oh         1 LIG      -0.585800
      2 C            2.6220     0.5610     1.9520 c3         1 LIG       0.162300
      3 C1           3.2470     1.3810     0.8390 cc         1 LIG       0.047400
      4 C2           4.1080     0.8780    -0.0590 cd         1 LIG      -0.323200
      5 C3           4.6720     1.7490    -1.1070 c          1 LIG       0.713700
      6 O1           5.4200     1.2880    -1.9590 o          1 LIG      -0.593500
      7 N            4.2980     3.0580    -1.0600 n          1 LIG      -0.581500
      8 C4           3.4420     3.5930    -0.1450 c          1 LIG       0.807500
      9 O2           3.1300     4.7780    -0.1480 o          1 LIG      -0.612500
     10 N1           2.9390     2.7220     0.7860 n          1 LIG      -0.471100
     11 C5           1.2840    -0.1370     1.5790 c3         1 LIG       0.045000
     12 N2           1.5320    -1.2760     0.6490 nh         1 LIG      -0.377100
     13 C6           0.5320    -1.7280    -0.1130 cz         1 LIG       0.411300
     14 N3           0.6210    -2.7710    -0.9870 nh         1 LIG      -0.345200
     15 C7          -0.6950    -2.9240    -1.6460 c3         1 LIG      -0.027700
     16 C8          -1.6290    -1.9530    -0.8840 c3         1 LIG       0.027000
     17 N4          -0.6900    -1.1710    -0.0760 nh         1 LIG      -0.187200
     18 C9          -1.0500     0.0350     0.6560 c3         1 LIG       0.016000
     19 C10         -1.9950     0.8930    -0.1930 c3         1 LIG      -0.144400
     20 C11         -3.1260     0.0510    -0.8140 c3         1 LIG       0.243100
     21 O3          -3.8960    -0.6220     0.1700 os         1 LIG      -0.624500
     22 S           -4.7420     0.2290     1.2740 s6         1 LIG       1.715300
     23 O4          -5.7890    -0.7030     1.6640 o          1 LIG      -0.740533
     24 O5          -5.1870     1.4070     0.5410 o          1 LIG      -0.740533
     25 O6          -3.7370     0.4930     2.3010 o          1 LIG      -0.740533
     26 C12         -2.5060    -1.0330    -1.7380 c3         1 LIG      -0.084700
     27 C13         -3.5850    -1.8320    -2.4710 c3         1 LIG      -0.091100
     28 C14          0.2170     0.8150     1.0240 c3         1 LIG      -0.120400
     29 H            4.2460    -0.0630     2.8420 ho         1 LIG       0.429000
     30 H1           2.4660     1.1880     2.8390 h1         1 LIG       0.081700
     31 H2           4.4250    -0.1560    -0.0730 ha         1 LIG       0.184000
     32 H3           4.6710     3.6800    -1.7610 hn         1 LIG       0.361500
     33 H4           2.3120     3.1520     1.4590 hn         1 LIG       0.358500
     34 H5           0.9040    -0.6080     2.4960 h1         1 LIG       0.112700
     35 H6           2.4190    -1.7620     0.6930 hn         1 LIG       0.326700
     36 H7           1.4610    -3.3080    -1.1420 hn         1 LIG       0.287700
     37 H8          -1.0270    -3.9620    -1.5520 h1         1 LIG       0.085700
     38 H9          -0.5790    -2.6600    -2.7010 h1         1 LIG       0.085700
     39 H10         -2.2420    -2.5370    -0.1860 h1         1 LIG       0.136700
     40 H11         -1.5400    -0.2980     1.5750 h1         1 LIG       0.182700
     41 H12         -1.4360     1.3670    -1.0110 hc         1 LIG       0.075700
     42 H13         -2.3950     1.7090     0.4180 hc         1 LIG       0.075700
     43 H14         -3.7770     0.6950    -1.4170 h1         1 LIG       0.062700
     44 H15         -1.8830    -0.5290    -2.4890 hc         1 LIG       0.044700
     45 H16         -3.1350    -2.5450    -3.1700 hc         1 LIG       0.049700
     46 H17         -4.2330    -1.1640    -3.0480 hc         1 LIG       0.049700
     47 H18         -4.2150    -2.3970    -1.7760 hc         1 LIG       0.049700
     48 H19         -0.0160     1.6050     1.7470 hc         1 LIG       0.080700
     49 H20          0.6020     1.2980     0.1180 hc         1 LIG       0.080700
@<TRIPOS>BOND
     1     1     2 1   
     2     2     3 1   
     3     3     4 2   
     4     4     5 1   
     5     5     6 2   
     6     5     7 1   
     7     7     8 1   
     8     8     9 2   
     9     8    10 1   
    10     2    11 1   
    11    11    12 1   
    12    12    13 2   
    13    13    14 1   
    14    14    15 1   
    15    15    16 1   
    16    16    17 1   
    17    17    18 1   
    18    18    19 1   
    19    19    20 1   
    20    20    21 1   
    21    21    22 1   
    22    22    23 1   
    23    22    24 1   
    24    22    25 1   
    25    20    26 1   
    26    26    27 1   
    27    18    28 1   
    28    10     3 1   
    29    28    11 1   
    30    17    13 1   
    31    26    16 1   
    32     1    29 1   
    33     2    30 1   
    34     4    31 1   
    35     7    32 1   
    36    10    33 1   
    37    11    34 1   
    38    12    35 1   
    39    14    36 1   
    40    15    37 1   
    41    15    38 1   
    42    16    39 1   
    43    18    40 1   
    44    19    41 1   
    45    19    42 1   
    46    20    43 1   
    47    26    44 1   
    48    27    45 1   
    49    27    46 1   
    50    27    47 1   
    51    28    48 1   
    52    28    49 1   
@<TRIPOS>SUBSTRUCTURE
     1 LIG         1 TEMP              0 ****  ****    0 ROOT
