@<TRIPOS>MOLECULE
LIG
    6     5     1     0     0
SMALL
bcc


@<TRIPOS>ATOM
      1 C           -0.7210    -0.1710     0.0230 c2         1 LIG      -0.218000
      2 C1           0.5400     0.2270    -0.1480 c2         1 LIG      -0.063600
      3 Cl           1.8160    -0.2760     0.8760 cl         1 LIG      -0.124400
      4 H           -1.5030     0.1690    -0.6460 ha         1 LIG       0.128500
      5 H1          -1.0010    -0.8410     0.8300 ha         1 LIG       0.128500
      6 H2           0.8690     0.8930    -0.9350 h4         1 LIG       0.148000
@<TRIPOS>BOND
     1     1     2 2   
     2     2     3 1   
     3     1     4 1   
     4     1     5 1   
     5     2     6 1   
@<TRIPOS>SUBSTRUCTURE
     1 LIG         1 TEMP              0 ****  ****    0 ROOT
