@<TRIPOS>MOLECULE
LIG
   24    26     1     0     0
SMALL
bcc


@<TRIPOS>ATOM
      1 C           -3.6310     0.8030     0.2240 ca         1 LIG      -0.127000
      2 C1          -3.6700    -0.5880     0.2500 ca         1 LIG      -0.127000
      3 C2          -2.4840    -1.3190     0.1840 ca         1 LIG      -0.118000
      4 C3          -1.2420    -0.6690     0.0920 ca         1 LIG      -0.034000
      5 C4          -0.0390    -1.3920     0.0250 ca         1 LIG      -0.107000
      6 C5           1.2020    -0.7410    -0.0670 ca         1 LIG      -0.034000
      7 C6           2.4050    -1.4640    -0.1330 ca         1 LIG      -0.118000
      8 C7           3.6310    -0.8030    -0.2240 ca         1 LIG      -0.127000
      9 C8           3.6700     0.5880    -0.2500 ca         1 LIG      -0.127000
     10 C9           2.4840     1.3190    -0.1840 ca         1 LIG      -0.118000
     11 C10          1.2420     0.6690    -0.0920 ca         1 LIG      -0.034000
     12 C11          0.0390     1.3920    -0.0250 ca         1 LIG      -0.107000
     13 C12         -1.2020     0.7410     0.0670 ca         1 LIG      -0.034000
     14 C13         -2.4050     1.4640     0.1330 ca         1 LIG      -0.118000
     15 H           -4.5540     1.3750     0.2750 ha         1 LIG       0.132000
     16 H1          -4.6240    -1.1040     0.3200 ha         1 LIG       0.132000
     17 H2          -2.5350    -2.4060     0.2050 ha         1 LIG       0.132000
     18 H3          -0.0700    -2.4800     0.0450 ha         1 LIG       0.134000
     19 H4           2.3950    -2.5510    -0.1150 ha         1 LIG       0.132000
     20 H5           4.5540    -1.3750    -0.2750 ha         1 LIG       0.132000
     21 H6           4.6240     1.1040    -0.3200 ha         1 LIG       0.132000
     22 H7           2.5350     2.4060    -0.2050 ha         1 LIG       0.132000
     23 H8           0.0700     2.4800    -0.0450 ha         1 LIG       0.134000
     24 H9          -2.3950     2.5510     0.1150 ha         1 LIG       0.132000
@<TRIPOS>BOND
     1     1     2 ar  
     2     2     3 ar  
     3     3     4 ar  
     4     4     5 ar  
     5     5     6 ar  
     6     6     7 ar  
     7     7     8 ar  
     8     8     9 ar  
     9     9    10 ar  
    10    10    11 ar  
    11    11    12 ar  
    12    12    13 ar  
    13    13    14 ar  
    14    14     1 ar  
    15    13     4 ar  
    16    11     6 ar  
    17     1    15 1   
    18     2    16 1   
    19     3    17 1   
    20     5    18 1   
    21     7    19 1   
    22     8    20 1   
    23     9    21 1   
    24    10    22 1   
    25    12    23 1   
    26    14    24 1   
@<TRIPOS>SUBSTRUCTURE
     1 LIG         1 TEMP              0 ****  ****    0 ROOT
