@<TRIPOS>MOLECULE
LIG
   43    43     1     0     0
SMALL
bcc


@<TRIPOS>ATOM
      1 C           -0.5060    -0.1310    -1.7370 ca         1 LIG       0.433200
      2 N           -1.8410    -0.2440    -1.5720 nb         1 LIG      -0.685000
      3 C1          -2.3180    -0.0550    -0.3270 ca         1 LIG       0.656300
      4 C2          -3.8170    -0.2280    -0.0890 c3         1 LIG      -0.078300
      5 C3          -4.6230     0.0880    -1.3650 c3         1 LIG      -0.086100
      6 C4          -4.0780    -1.6850     0.3250 c3         1 LIG      -0.086100
      7 C5          -4.3060     0.7160     1.0260 c3         1 LIG      -0.086100
      8 N1          -1.5320     0.2060     0.7380 nb         1 LIG      -0.685000
      9 C6          -0.2030     0.3080     0.5170 ca         1 LIG       0.433200
     10 C7           0.3770     0.1490    -0.7190 ca         1 LIG      -0.106500
     11 O            1.6970     0.2320    -1.0250 os         1 LIG      -0.435500
     12 P            2.9090     0.5600    -0.0080 p5         1 LIG       1.277200
     13 S            4.6760     0.6330    -0.8040 s          1 LIG      -0.592000
     14 O1           2.4030     1.9180     0.7190 os         1 LIG      -0.558200
     15 C8           2.5730     3.1930     0.1220 c3         1 LIG       0.145400
     16 C9           1.5630     3.4460    -0.9790 c3         1 LIG      -0.122100
     17 O2           2.6800    -0.4970     1.1920 os         1 LIG      -0.593200
     18 C10          2.9680    -1.8870     1.1510 c3         1 LIG       0.232100
     19 C11          2.6980    -2.5700    -0.1830 c3         1 LIG      -0.148600
     20 C12          4.3810    -2.1500     1.6560 c3         1 LIG      -0.148600
     21 H           -0.1570    -0.2810    -2.7550 h4         1 LIG       0.040100
     22 H1          -4.3740    -0.5970    -2.1840 hc         1 LIG       0.043811
     23 H2          -5.7000    -0.0030    -1.1840 hc         1 LIG       0.043811
     24 H3          -4.4280     1.1090    -1.7150 hc         1 LIG       0.043811
     25 H4          -3.5370    -1.9430     1.2430 hc         1 LIG       0.043811
     26 H5          -3.7520    -2.3860    -0.4530 hc         1 LIG       0.043811
     27 H6          -5.1440    -1.8600     0.5060 hc         1 LIG       0.043811
     28 H7          -5.3880     0.6220     1.1770 hc         1 LIG       0.043811
     29 H8          -3.8260     0.4950     1.9870 hc         1 LIG       0.043811
     30 H9          -4.0920     1.7630     0.7830 hc         1 LIG       0.043811
     31 H10          0.3700     0.5300     1.4110 h4         1 LIG       0.040100
     32 H11          2.4300     3.9360     0.9130 h1         1 LIG       0.077200
     33 H12          3.5950     3.3190    -0.2470 h1         1 LIG       0.077200
     34 H13          1.7230     2.7690    -1.8230 hc         1 LIG       0.053367
     35 H14          1.6460     4.4730    -1.3480 hc         1 LIG       0.053367
     36 H15          0.5440     3.2850    -0.6170 hc         1 LIG       0.053367
     37 H16          2.2840    -2.3380     1.8800 h1         1 LIG       0.074700
     38 H17          2.8920    -3.6460    -0.1140 hc         1 LIG       0.061700
     39 H18          1.6540    -2.4380    -0.4810 hc         1 LIG       0.061700
     40 H19          3.3210    -2.1690    -0.9860 hc         1 LIG       0.061700
     41 H20          4.5430    -3.2190     1.8260 hc         1 LIG       0.061700
     42 H21          4.5600    -1.6160     2.5960 hc         1 LIG       0.061700
     43 H22          5.1380    -1.8080     0.9460 hc         1 LIG       0.061700
@<TRIPOS>BOND
     1     1     2 ar  
     2     2     3 ar  
     3     3     4 1   
     4     4     5 1   
     5     4     6 1   
     6     4     7 1   
     7     3     8 ar  
     8     8     9 ar  
     9     9    10 ar  
    10    10    11 1   
    11    11    12 1   
    12    12    13 2   
    13    12    14 1   
    14    14    15 1   
    15    15    16 1   
    16    12    17 1   
    17    17    18 1   
    18    18    19 1   
    19    18    20 1   
    20    10     1 ar  
    21     1    21 1   
    22     5    22 1   
    23     5    23 1   
    24     5    24 1   
    25     6    25 1   
    26     6    26 1   
    27     6    27 1   
    28     7    28 1   
    29     7    29 1   
    30     7    30 1   
    31     9    31 1   
    32    15    32 1   
    33    15    33 1   
    34    16    34 1   
    35    16    35 1   
    36    16    36 1   
    37    18    37 1   
    38    19    38 1   
    39    19    39 1   
    40    19    40 1   
    41    20    41 1   
    42    20    42 1   
    43    20    43 1   
@<TRIPOS>SUBSTRUCTURE
     1 LIG         1 TEMP              0 ****  ****    0 ROOT
