@<TRIPOS>MOLECULE
LIG
   40    40     1     0     0
SMALL
bcc


@<TRIPOS>ATOM
      1 C           -0.8330    -1.3730     1.4860 ca         1 LIG      -0.362600
      2 C1          -0.1960    -0.7870     0.4210 ca         1 LIG       0.667600
      3 O            1.1600    -0.9500     0.3330 os         1 LIG      -0.548700
      4 P            1.9880    -0.5140    -0.9850 p5         1 LIG       1.264200
      5 S            1.6350    -1.4460    -2.6530 s          1 LIG      -0.551000
      6 O1           3.5130    -0.6850    -0.4440 os         1 LIG      -0.545700
      7 C2           4.0030    -1.9930    -0.1990 c3         1 LIG       0.166400
      8 C3           5.1890    -1.8960     0.7400 c3         1 LIG      -0.114100
      9 O2           1.8790     1.1010    -1.0370 os         1 LIG      -0.545700
     10 C4           2.2110     1.8650     0.1070 c3         1 LIG       0.166400
     11 C5           1.9220     3.3220    -0.1920 c3         1 LIG      -0.114100
     12 N           -0.8110    -0.0510    -0.5090 nb         1 LIG      -0.819000
     13 C6          -2.1420     0.0820    -0.3780 ca         1 LIG       0.725300
     14 C7          -2.8660     0.8780    -1.4400 c3         1 LIG      -0.099000
     15 C8          -3.8670    -0.0020    -2.1900 c3         1 LIG      -0.092600
     16 C9          -3.5560     2.1000    -0.8340 c3         1 LIG      -0.092600
     17 N1          -2.8610    -0.4510     0.6300 nb         1 LIG      -0.713000
     18 C10         -2.1950    -1.1720     1.5540 ca         1 LIG       0.480600
     19 C11         -2.9990    -1.7820     2.6620 c3         1 LIG      -0.159400
     20 H           -0.2960    -1.9570     2.2210 ha         1 LIG       0.173000
     21 H1           3.2240    -2.6180     0.2480 h1         1 LIG       0.063450
     22 H2           4.3170    -2.4400    -1.1470 h1         1 LIG       0.063450
     23 H3           4.8890    -1.4540     1.6960 hc         1 LIG       0.051200
     24 H4           5.6180    -2.8840     0.9280 hc         1 LIG       0.051200
     25 H5           5.9650    -1.2480     0.3180 hc         1 LIG       0.051200
     26 H6           3.2730     1.7400     0.3430 h1         1 LIG       0.063450
     27 H7           1.6150     1.5380     0.9660 h1         1 LIG       0.063450
     28 H8           0.8660     3.4630    -0.4510 hc         1 LIG       0.051200
     29 H9           2.1640     3.9510     0.6690 hc         1 LIG       0.051200
     30 H10          2.5110     3.6600    -1.0540 hc         1 LIG       0.051200
     31 H11         -2.1240     1.2360    -2.1640 hc         1 LIG       0.083700
     32 H12         -4.6590    -0.3690    -1.5280 hc         1 LIG       0.046200
     33 H13         -3.3700    -0.8750    -2.6300 hc         1 LIG       0.046200
     34 H14         -4.3440     0.5590    -3.0000 hc         1 LIG       0.046200
     35 H15         -4.3530     1.8160    -0.1360 hc         1 LIG       0.046200
     36 H16         -4.0060     2.7140    -1.6220 hc         1 LIG       0.046200
     37 H17         -2.8450     2.7280    -0.2850 hc         1 LIG       0.046200
     38 H18         -4.0250    -1.4010     2.6520 hc         1 LIG       0.064033
     39 H19         -3.0370    -2.8680     2.5430 hc         1 LIG       0.064033
     40 H20         -2.5580    -1.5420     3.6340 hc         1 LIG       0.064033
@<TRIPOS>BOND
     1     1     2 ar  
     2     2     3 1   
     3     3     4 1   
     4     4     5 2   
     5     4     6 1   
     6     6     7 1   
     7     7     8 1   
     8     4     9 1   
     9     9    10 1   
    10    10    11 1   
    11     2    12 ar  
    12    12    13 ar  
    13    13    14 1   
    14    14    15 1   
    15    14    16 1   
    16    13    17 ar  
    17    17    18 ar  
    18    18    19 1   
    19    18     1 ar  
    20     1    20 1   
    21     7    21 1   
    22     7    22 1   
    23     8    23 1   
    24     8    24 1   
    25     8    25 1   
    26    10    26 1   
    27    10    27 1   
    28    11    28 1   
    29    11    29 1   
    30    11    30 1   
    31    14    31 1   
    32    15    32 1   
    33    15    33 1   
    34    15    34 1   
    35    16    35 1   
    36    16    36 1   
    37    16    37 1   
    38    19    38 1   
    39    19    39 1   
    40    19    40 1   
@<TRIPOS>SUBSTRUCTURE
     1 LIG         1 TEMP              0 ****  ****    0 ROOT
