@<TRIPOS>MOLECULE
LIG
   43    44     1     0     0
SMALL
bcc


@<TRIPOS>ATOM
      1 O           -1.2790    -0.9030    -1.5240 oh         1 LIG      -0.601800
      2 C           -1.3080    -0.3210    -0.2040 c3         1 LIG       0.153800
      3 C1          -2.2580     0.9240    -0.2790 c3         1 LIG       0.018300
      4 N           -1.7960     2.0070    -1.1240 na         1 LIG      -0.060400
      5 N1          -1.1770     3.0820    -0.6020 nc         1 LIG      -0.522800
      6 C2          -0.9450     3.8080    -1.7000 cd         1 LIG       0.499900
      7 N2          -1.3920     3.2560    -2.8670 nd         1 LIG      -0.682000
      8 C3          -1.9400     2.1310    -2.4710 cc         1 LIG       0.394400
      9 C4           0.1340     0.1610     0.1570 c3         1 LIG      -0.111400
     10 C5           1.2390    -0.8980     0.2180 c3         1 LIG      -0.040100
     11 C6           2.6150    -0.2710     0.1680 ca         1 LIG      -0.082300
     12 C7           3.3590    -0.2850    -1.0200 ca         1 LIG      -0.120500
     13 C8           4.6230     0.3080    -1.0690 ca         1 LIG      -0.120500
     14 C9           5.1460     0.9190     0.0680 ca         1 LIG       0.014400
     15 Cl           6.7030     1.6490     0.0070 cl         1 LIG      -0.094400
     16 C10          4.4160     0.9440     1.2540 ca         1 LIG      -0.120500
     17 C11          3.1530     0.3510     1.3040 ca         1 LIG      -0.120500
     18 C12         -1.9260    -1.4270     0.7740 c3         1 LIG      -0.036000
     19 C13         -3.4480    -1.6100     0.5210 c3         1 LIG      -0.093433
     20 C14         -1.3190    -2.8360     0.5580 c3         1 LIG      -0.093433
     21 C15         -1.7500    -1.0430     2.2570 c3         1 LIG      -0.093433
     22 H           -0.5860    -0.4630    -2.0500 ho         1 LIG       0.409000
     23 H1          -2.4320     1.3500     0.7160 h1         1 LIG       0.082700
     24 H2          -3.2290     0.6460    -0.7050 h1         1 LIG       0.082700
     25 H3          -0.4380     4.7630    -1.6500 h5         1 LIG       0.072100
     26 H4          -2.4320     1.3950    -3.0920 h5         1 LIG       0.077100
     27 H5           0.4520     0.8800    -0.6100 hc         1 LIG       0.062700
     28 H6           0.1120     0.7200     1.1010 hc         1 LIG       0.062700
     29 H7           1.1380    -1.6120    -0.6070 hc         1 LIG       0.060200
     30 H8           1.1760    -1.4670     1.1500 hc         1 LIG       0.060200
     31 H9           2.9610    -0.7560    -1.9160 ha         1 LIG       0.138000
     32 H10          5.1910     0.2910    -1.9950 ha         1 LIG       0.147500
     33 H11          4.8220     1.4230     2.1400 ha         1 LIG       0.147500
     34 H12          2.5900     0.3790     2.2340 ha         1 LIG       0.138000
     35 H13         -3.6550    -1.8110    -0.5360 hc         1 LIG       0.041478
     36 H14         -4.0230    -0.7310     0.8280 hc         1 LIG       0.041478
     37 H15         -3.8490    -2.4520     1.0990 hc         1 LIG       0.041478
     38 H16         -0.2750    -2.9050     0.8590 hc         1 LIG       0.041478
     39 H17         -1.3960    -3.1580    -0.4860 hc         1 LIG       0.041478
     40 H18         -1.8490    -3.5850     1.1600 hc         1 LIG       0.041478
     41 H19         -2.1930    -0.0680     2.4790 hc         1 LIG       0.041478
     42 H20         -0.6960    -1.0090     2.5470 hc         1 LIG       0.041478
     43 H21         -2.2360    -1.7760     2.9120 hc         1 LIG       0.041478
@<TRIPOS>BOND
     1     1     2 1   
     2     2     3 1   
     3     3     4 1   
     4     4     5 1   
     5     5     6 2   
     6     6     7 1   
     7     7     8 2   
     8     2     9 1   
     9     9    10 1   
    10    10    11 1   
    11    11    12 ar  
    12    12    13 ar  
    13    13    14 ar  
    14    14    15 1   
    15    14    16 ar  
    16    16    17 ar  
    17     2    18 1   
    18    18    19 1   
    19    18    20 1   
    20    18    21 1   
    21     8     4 1   
    22    17    11 ar  
    23     1    22 1   
    24     3    23 1   
    25     3    24 1   
    26     6    25 1   
    27     8    26 1   
    28     9    27 1   
    29     9    28 1   
    30    10    29 1   
    31    10    30 1   
    32    12    31 1   
    33    13    32 1   
    34    16    33 1   
    35    17    34 1   
    36    19    35 1   
    37    19    36 1   
    38    19    37 1   
    39    20    38 1   
    40    20    39 1   
    41    20    40 1   
    42    21    41 1   
    43    21    42 1   
    44    21    43 1   
@<TRIPOS>SUBSTRUCTURE
     1 LIG         1 TEMP              0 ****  ****    0 ROOT
