@<TRIPOS>MOLECULE
LIG
   24    26     1     0     0
SMALL
bcc


@<TRIPOS>ATOM
      1 C           -3.5750     0.0610    -0.0500 ca         1 LIG      -0.127000
      2 C1          -3.0370    -1.2170    -0.0180 ca         1 LIG      -0.128000
      3 C2          -1.6500    -1.3890     0.0040 ca         1 LIG      -0.119000
      4 C3          -0.7500    -0.2930    -0.0050 ca         1 LIG      -0.019000
      5 C4          -1.3280     1.0020    -0.0370 ca         1 LIG      -0.036000
      6 C5          -2.7240     1.1630    -0.0590 ca         1 LIG      -0.118000
      7 C6          -0.5060     2.1320    -0.0470 ca         1 LIG      -0.116000
      8 C7           0.8800     2.0080    -0.0260 ca         1 LIG      -0.116000
      9 C8           1.4860     0.7490     0.0060 ca         1 LIG      -0.036000
     10 C9           2.8880     0.6580     0.0270 ca         1 LIG      -0.118000
     11 C10          3.5280    -0.5780     0.0590 ca         1 LIG      -0.127000
     12 C11          2.7710    -1.7390     0.0710 ca         1 LIG      -0.128000
     13 C12          1.3750    -1.6610     0.0500 ca         1 LIG      -0.119000
     14 C13          0.6850    -0.4220     0.0170 ca         1 LIG      -0.019000
     15 H           -4.6520     0.2020    -0.0680 ha         1 LIG       0.133000
     16 H1          -3.6920    -2.0840    -0.0110 ha         1 LIG       0.132000
     17 H2          -1.2820    -2.4110     0.0280 ha         1 LIG       0.132000
     18 H3          -3.1630     2.1580    -0.0840 ha         1 LIG       0.133000
     19 H4          -0.9390     3.1300    -0.0720 ha         1 LIG       0.133000
     20 H5           1.4840     2.9130    -0.0350 ha         1 LIG       0.133000
     21 H6           3.4980     1.5590     0.0180 ha         1 LIG       0.133000
     22 H7           4.6130    -0.6310     0.0750 ha         1 LIG       0.133000
     23 H8           3.2600    -2.7090     0.0960 ha         1 LIG       0.132000
     24 H9           0.8300    -2.6010     0.0610 ha         1 LIG       0.132000
@<TRIPOS>BOND
     1     1     2 ar  
     2     2     3 ar  
     3     3     4 ar  
     4     4     5 ar  
     5     5     6 ar  
     6     5     7 ar  
     7     7     8 ar  
     8     8     9 ar  
     9     9    10 ar  
    10    10    11 ar  
    11    11    12 ar  
    12    12    13 ar  
    13    13    14 ar  
    14     6     1 ar  
    15    14     9 ar  
    16    14     4 ar  
    17     1    15 1   
    18     2    16 1   
    19     3    17 1   
    20     6    18 1   
    21     7    19 1   
    22     8    20 1   
    23    10    21 1   
    24    11    22 1   
    25    12    23 1   
    26    13    24 1   
@<TRIPOS>SUBSTRUCTURE
     1 LIG         1 TEMP              0 ****  ****    0 ROOT
