@<TRIPOS>MOLECULE
LIG
    7     6     1     0     0
SMALL
bcc


@<TRIPOS>ATOM
      1 C           -1.0390    -0.1440    -0.0150 c2         1 LIG      -0.156000
      2 C1           0.1670     0.3870    -0.2540 ce         1 LIG      -0.065700
      3 C2           1.3640    -0.1690     0.2720 cg         1 LIG       0.181500
      4 N            2.3440    -0.6200     0.6990 n1         1 LIG      -0.364800
      5 H           -1.1620    -1.0340     0.5970 ha         1 LIG       0.127000
      6 H1          -1.9350     0.3040    -0.4310 ha         1 LIG       0.127000
      7 H2           0.2620     1.2760    -0.8680 ha         1 LIG       0.151000
@<TRIPOS>BOND
     1     1     2 2   
     2     2     3 1   
     3     3     4 3   
     4     1     5 1   
     5     1     6 1   
     6     2     7 1   
@<TRIPOS>SUBSTRUCTURE
     1 LIG         1 TEMP              0 ****  ****    0 ROOT
