@<TRIPOS>MOLECULE
LIG
   37    38     1     0     0
SMALL
bcc


@<TRIPOS>ATOM
      1 C           -3.5850     1.8340    -1.3980 ca         1 LIG      -0.158000
      2 C1          -2.6280     0.8200    -1.2650 ca         1 LIG      -0.104000
      3 C2          -2.0470     0.5260    -0.0220 ca         1 LIG       0.037600
      4 N           -1.0720    -0.5260     0.1480 n          1 LIG      -0.386000
      5 C3           0.0230    -0.2940     1.0180 c          1 LIG       0.644100
      6 O            0.2390     0.7890     1.5730 o          1 LIG      -0.577100
      7 C4           0.9800    -1.4730     1.2940 c3         1 LIG       0.063400
      8 O1           2.1320    -1.1120     2.0510 os         1 LIG      -0.388100
      9 C5           3.0580    -0.4410     1.3650 cc         1 LIG       0.577700
     10 N1           3.0870    -0.3540     0.0530 nd         1 LIG      -0.386000
     11 N2           4.1580     0.3910    -0.3970 nd         1 LIG      -0.223000
     12 C6           4.9020     0.8440     0.5970 cc         1 LIG       0.165700
     13 C7           6.1240     1.6870     0.4690 c3         1 LIG       0.641600
     14 F            6.4170     2.0020    -0.8210 f          1 LIG      -0.223300
     15 F1           7.2270     1.0670     0.9710 f          1 LIG      -0.223300
     16 F2           6.0100     2.8680     1.1370 f          1 LIG      -0.223300
     17 S            4.3480     0.3550     2.1560 ss         1 LIG       0.020200
     18 C8          -1.1730    -1.7740    -0.6550 c3         1 LIG       0.113700
     19 C9          -2.5960    -2.3040    -0.8790 c3         1 LIG      -0.114600
     20 C10         -0.3670    -1.7120    -1.9570 c3         1 LIG      -0.114600
     21 C11         -2.4640     1.2890     1.0850 ca         1 LIG      -0.104000
     22 C12         -3.4200     2.3020     0.9570 ca         1 LIG      -0.158000
     23 C13         -3.9730     2.5640    -0.2850 ca         1 LIG       0.122900
     24 F3          -4.8890     3.5320    -0.4140 f          1 LIG      -0.138900
     25 H           -4.0200     2.0600    -2.3660 ha         1 LIG       0.151500
     26 H1          -2.3310     0.3040    -2.1690 ha         1 LIG       0.147500
     27 H2           0.4250    -2.1950     1.9040 h1         1 LIG       0.097200
     28 H3           1.2860    -1.9800     0.3750 h1         1 LIG       0.097200
     29 H4          -0.7110    -2.5620    -0.0540 h1         1 LIG       0.041700
     30 H5          -3.1540    -1.7390    -1.6300 hc         1 LIG       0.050200
     31 H6          -3.1690    -2.2930     0.0540 hc         1 LIG       0.050200
     32 H7          -2.5580    -3.3400    -1.2340 hc         1 LIG       0.050200
     33 H8          -0.3120    -2.7040    -2.4170 hc         1 LIG       0.050200
     34 H9           0.6560    -1.3690    -1.7770 hc         1 LIG       0.050200
     35 H10         -0.8080    -1.0370    -2.6930 hc         1 LIG       0.050200
     36 H11         -2.0650     1.0950     2.0780 ha         1 LIG       0.147500
     37 H12         -3.7300     2.8810     1.8210 ha         1 LIG       0.151500
@<TRIPOS>BOND
     1     1     2 ar  
     2     2     3 ar  
     3     3     4 1   
     4     4     5 1   
     5     5     6 2   
     6     5     7 1   
     7     7     8 1   
     8     8     9 1   
     9     9    10 2   
    10    10    11 1   
    11    11    12 2   
    12    12    13 1   
    13    13    14 1   
    14    13    15 1   
    15    13    16 1   
    16    12    17 1   
    17     4    18 1   
    18    18    19 1   
    19    18    20 1   
    20     3    21 ar  
    21    21    22 ar  
    22    22    23 ar  
    23    23    24 1   
    24    23     1 ar  
    25    17     9 1   
    26     1    25 1   
    27     2    26 1   
    28     7    27 1   
    29     7    28 1   
    30    18    29 1   
    31    19    30 1   
    32    19    31 1   
    33    19    32 1   
    34    20    33 1   
    35    20    34 1   
    36    20    35 1   
    37    21    36 1   
    38    22    37 1   
@<TRIPOS>SUBSTRUCTURE
     1 LIG         1 TEMP              0 ****  ****    0 ROOT
