@<TRIPOS>MOLECULE
LIG
   32    36     1     0     0
SMALL
bcc


@<TRIPOS>ATOM
      1 C           -4.9130     0.8910    -0.2380 ca         1 LIG      -0.127000
      2 C1          -4.9690    -0.4960    -0.1370 ca         1 LIG      -0.127000
      3 C2          -3.7910    -1.2420    -0.0780 ca         1 LIG      -0.117000
      4 C3          -2.5380    -0.6120    -0.1190 ca         1 LIG      -0.035000
      5 C4          -1.3540    -1.3680    -0.0600 ca         1 LIG      -0.094000
      6 C5          -0.1430    -0.7030    -0.1040 cp         1 LIG      -0.030000
      7 C6          -0.0860     0.7120    -0.2070 cq         1 LIG      -0.030000
      8 C7          -1.2390     1.4720    -0.2670 ca         1 LIG      -0.094000
      9 C8          -2.4810     0.8120    -0.2230 ca         1 LIG      -0.035000
     10 C9          -3.6780     1.5400    -0.2810 ca         1 LIG      -0.117000
     11 C10          1.3230     1.0840    -0.2290 cp         1 LIG      -0.033000
     12 C11          1.9790     2.2980    -0.3150 ca         1 LIG      -0.089000
     13 C12          3.3860     2.3010    -0.3100 ca         1 LIG      -0.134000
     14 C13          4.1250     1.1010    -0.2200 ca         1 LIG      -0.102000
     15 C14          3.4610    -0.1380    -0.1320 ca         1 LIG      -0.031000
     16 C15          4.0230    -1.4260    -0.0360 ca         1 LIG      -0.102000
     17 C16          3.1890    -2.5640     0.0440 ca         1 LIG      -0.134000
     18 C17          1.7870    -2.4480     0.0310 ca         1 LIG      -0.089000
     19 C18          1.2310    -1.1860    -0.0640 cq         1 LIG      -0.033000
     20 C19          2.0690    -0.0830    -0.1410 ca         1 LIG      -0.059000
     21 H           -5.8320     1.4700    -0.2830 ha         1 LIG       0.133000
     22 H1          -5.9320    -1.0000    -0.1030 ha         1 LIG       0.133000
     23 H2          -3.8600    -2.3250     0.0010 ha         1 LIG       0.133000
     24 H3          -1.3830    -2.4500     0.0190 ha         1 LIG       0.137000
     25 H4          -1.1810     2.5520    -0.3450 ha         1 LIG       0.137000
     26 H5          -3.6600     2.6250    -0.3600 ha         1 LIG       0.133000
     27 H6           1.4290     3.2300    -0.3850 ha         1 LIG       0.136000
     28 H7           3.9170     3.2480    -0.3770 ha         1 LIG       0.132000
     29 H8           5.2110     1.1390    -0.2190 ha         1 LIG       0.134000
     30 H9           5.1030    -1.5510    -0.0230 ha         1 LIG       0.134000
     31 H10          3.6430    -3.5500     0.1180 ha         1 LIG       0.132000
     32 H11          1.1640    -3.3340     0.0930 ha         1 LIG       0.136000
@<TRIPOS>BOND
     1     1     2 ar  
     2     2     3 ar  
     3     3     4 ar  
     4     4     5 ar  
     5     5     6 ar  
     6     6     7 1   
     7     7     8 2   
     8     8     9 ar  
     9     9    10 ar  
    10     7    11 1   
    11    11    12 ar  
    12    12    13 ar  
    13    13    14 ar  
    14    14    15 ar  
    15    15    16 ar  
    16    16    17 ar  
    17    17    18 ar  
    18    18    19 2   
    19    19    20 1   
    20    10     1 ar  
    21    20    11 ar  
    22     9     4 ar  
    23    20    15 ar  
    24    19     6 1   
    25     1    21 1   
    26     2    22 1   
    27     3    23 1   
    28     5    24 1   
    29     8    25 1   
    30    10    26 1   
    31    12    27 1   
    32    13    28 1   
    33    14    29 1   
    34    16    30 1   
    35    17    31 1   
    36    18    32 1   
@<TRIPOS>SUBSTRUCTURE
     1 LIG         1 TEMP              0 ****  ****    0 ROOT
