@<TRIPOS>MOLECULE
LIG
    7     6     1     0     0
SMALL
bcc


@<TRIPOS>ATOM
      1 O            1.6610     0.6240     0.8090 o          1 LIG      -0.762300
      2 C            1.0060    -0.1170     0.0090 c          1 LIG       0.947600
      3 O1           1.4960    -0.9290    -0.8370 o          1 LIG      -0.762300
      4 C1          -0.5520     0.0100     0.0460 c3         1 LIG       0.160200
      5 Cl          -1.1770     0.4890     1.6570 cl         1 LIG      -0.186400
      6 Cl1         -1.3880    -1.4980    -0.4480 cl         1 LIG      -0.186400
      7 Br          -1.0460     1.4210    -1.2360 br         1 LIG      -0.211400
@<TRIPOS>BOND
     1     1     2 1   
     2     2     3 1   
     3     2     4 1   
     4     4     5 1   
     5     4     6 1   
     6     4     7 1   
@<TRIPOS>SUBSTRUCTURE
     1 LIG         1 TEMP              0 ****  ****    0 ROOT
