@<TRIPOS>MOLECULE
LIG
   19    19     1     0     0
SMALL
bcc


@<TRIPOS>ATOM
      1 C           -1.0480     2.0480     0.2230 ca         1 LIG      -0.153000
      2 C1           0.3360     1.9810     0.0780 ca         1 LIG      -0.031500
      3 C2           0.9650     0.7300    -0.0610 ca         1 LIG      -0.193200
      4 N            2.4200     0.7410    -0.1690 no         1 LIG       0.314200
      5 O            3.0530     0.0490     0.6390 o          1 LIG      -0.196000
      6 O1           2.9120     1.4570    -1.0500 o          1 LIG      -0.196000
      7 C3           0.2430    -0.4810    -0.0840 ca         1 LIG       0.071700
      8 C4           0.9210    -1.8120    -0.2770 c3         1 LIG      -0.088800
      9 C5          -1.1490    -0.3700     0.1040 ca         1 LIG      -0.193200
     10 N1          -1.9950    -1.5560     0.1750 no         1 LIG       0.314200
     11 O2          -1.6920    -2.4190     1.0080 o          1 LIG      -0.196000
     12 O3          -2.9650    -1.6010    -0.5930 o          1 LIG      -0.196000
     13 C6          -1.7950     0.8720     0.2440 ca         1 LIG      -0.031500
     14 H           -1.5410     3.0120     0.3300 ha         1 LIG       0.164000
     15 H1           0.9190     2.9010     0.0780 ha         1 LIG       0.180000
     16 H2           0.2690    -2.5240    -0.7940 hc         1 LIG       0.083367
     17 H3           1.2140    -2.2310     0.6900 hc         1 LIG       0.083367
     18 H4           1.8080    -1.7240    -0.9130 hc         1 LIG       0.083367
     19 H5          -2.8750     0.9260     0.3730 ha         1 LIG       0.180000
@<TRIPOS>BOND
     1     1     2 ar  
     2     2     3 ar  
     3     3     4 1   
     4     4     5 1   
     5     4     6 1   
     6     3     7 ar  
     7     7     8 1   
     8     7     9 ar  
     9     9    10 1   
    10    10    11 1   
    11    10    12 1   
    12     9    13 ar  
    13    13     1 ar  
    14     1    14 1   
    15     2    15 1   
    16     8    16 1   
    17     8    17 1   
    18     8    18 1   
    19    13    19 1   
@<TRIPOS>SUBSTRUCTURE
     1 LIG         1 TEMP              0 ****  ****    0 ROOT
