@<TRIPOS>MOLECULE
LIG
   18    18     1     0     0
SMALL
bcc


@<TRIPOS>ATOM
      1 C            2.0370     0.8240    -0.7350 ca         1 LIG      -0.086000
      2 C1           0.6540     0.7680    -0.5330 ca         1 LIG      -0.214000
      3 C2           0.0790    -0.2990     0.1670 ca         1 LIG       0.180100
      4 O           -1.2630    -0.4310     0.4090 os         1 LIG      -0.265900
      5 C3          -2.1320     0.5990    -0.0930 c3         1 LIG      -0.016600
      6 C4          -3.5930     0.2770     0.2750 c          1 LIG       0.929600
      7 O1          -3.9980     0.7700     1.3690 o          1 LIG      -0.814300
      8 O2          -4.2370    -0.3870    -0.5900 o          1 LIG      -0.814300
      9 C5           0.9200    -1.3100     0.6620 ca         1 LIG      -0.029600
     10 Cl           0.2960    -2.6660     1.5380 cl         1 LIG      -0.080400
     11 C6           2.3030    -1.2560     0.4610 ca         1 LIG      -0.093000
     12 C7           2.8530    -0.1870    -0.2370 ca         1 LIG      -0.043600
     13 Cl1          4.5550    -0.1130    -0.4890 cl         1 LIG      -0.133400
     14 H            2.4630     1.6610    -1.2820 ha         1 LIG       0.134000
     15 H1           0.0460     1.5730    -0.9350 ha         1 LIG       0.153000
     16 H2          -2.0550     0.6570    -1.1860 h1         1 LIG       0.023700
     17 H3          -1.8670     1.5650     0.3510 h1         1 LIG       0.023700
     18 H4           2.9400    -2.0450     0.8490 ha         1 LIG       0.145000
@<TRIPOS>BOND
     1     1     2 ar  
     2     2     3 ar  
     3     3     4 1   
     4     4     5 1   
     5     5     6 1   
     6     6     7 1   
     7     6     8 1   
     8     3     9 ar  
     9     9    10 1   
    10     9    11 ar  
    11    11    12 ar  
    12    12    13 1   
    13    12     1 ar  
    14     1    14 1   
    15     2    15 1   
    16     5    16 1   
    17     5    17 1   
    18    11    18 1   
@<TRIPOS>SUBSTRUCTURE
     1 LIG         1 TEMP              0 ****  ****    0 ROOT
