@<TRIPOS>MOLECULE
LIG
   26    26     1     0     0
SMALL
bcc


@<TRIPOS>ATOM
      1 C            1.0320     0.7460     0.9100 ca         1 LIG      -0.146000
      2 C1           2.4060     1.0120     0.8970 ca         1 LIG      -0.052500
      3 C2           3.2570     0.2400     0.0960 ca         1 LIG      -0.178200
      4 N            4.6980     0.5190     0.0790 no         1 LIG       0.314200
      5 O            5.1110     1.4620     0.7680 o          1 LIG      -0.202000
      6 O1           5.4160    -0.2030    -0.6270 o          1 LIG      -0.202000
      7 C3           2.7400    -0.7940    -0.6940 ca         1 LIG      -0.052500
      8 C4           1.3660    -1.0500    -0.6730 ca         1 LIG      -0.146000
      9 C5           0.5140    -0.2870     0.1300 ca         1 LIG       0.166100
     10 O2          -0.8090    -0.6210     0.0660 os         1 LIG      -0.468500
     11 P           -1.9860    -0.0670     1.0260 p5         1 LIG       1.234200
     12 S           -1.8630    -0.4640     2.9200 s          1 LIG      -0.546000
     13 O3          -3.3090    -0.6310     0.2770 os         1 LIG      -0.543700
     14 C6          -3.5330    -2.0280     0.2740 c3         1 LIG       0.148200
     15 O4          -2.0570     1.5090     0.6550 os         1 LIG      -0.543700
     16 C7          -2.3670     1.8900    -0.6700 c3         1 LIG       0.148200
     17 H            0.4000     1.3680     1.5380 ha         1 LIG       0.170500
     18 H1           2.7930     1.8200     1.5160 ha         1 LIG       0.180000
     19 H2           3.3840    -1.4040    -1.3240 ha         1 LIG       0.180000
     20 H3           0.9620    -1.8530    -1.2850 ha         1 LIG       0.170500
     21 H4          -4.2880    -2.2570    -0.4820 h1         1 LIG       0.061867
     22 H5          -3.9060    -2.3490     1.2490 h1         1 LIG       0.061867
     23 H6          -2.6160    -2.5700     0.0280 h1         1 LIG       0.061867
     24 H7          -3.4360     1.7560    -0.8550 h1         1 LIG       0.061867
     25 H8          -2.1200     2.9470    -0.7950 h1         1 LIG       0.061867
     26 H9          -1.7890     1.3090    -1.3930 h1         1 LIG       0.061867
@<TRIPOS>BOND
     1     1     2 ar  
     2     2     3 ar  
     3     3     4 1   
     4     4     5 1   
     5     4     6 1   
     6     3     7 ar  
     7     7     8 ar  
     8     8     9 ar  
     9     9    10 1   
    10    10    11 1   
    11    11    12 2   
    12    11    13 1   
    13    13    14 1   
    14    11    15 1   
    15    15    16 1   
    16     9     1 ar  
    17     1    17 1   
    18     2    18 1   
    19     7    19 1   
    20     8    20 1   
    21    14    21 1   
    22    14    22 1   
    23    14    23 1   
    24    16    24 1   
    25    16    25 1   
    26    16    26 1   
@<TRIPOS>SUBSTRUCTURE
     1 LIG         1 TEMP              0 ****  ****    0 ROOT
