@<TRIPOS>MOLECULE
LIG
    5     4     1     0     0
SMALL
bcc


@<TRIPOS>ATOM
      1 C           -0.0020     0.0010     0.1150 c3         1 LIG       0.055500
      2 Br          -1.4130    -1.2090    -0.4550 br         1 LIG      -0.062400
      3 Br1         -0.3250     1.8290    -0.4620 br         1 LIG      -0.062400
      4 Br2          1.7610    -0.6320    -0.4060 br         1 LIG      -0.062400
      5 H           -0.0210     0.0100     1.2080 h3         1 LIG       0.132700
@<TRIPOS>BOND
     1     1     2 1   
     2     1     3 1   
     3     1     4 1   
     4     1     5 1   
@<TRIPOS>SUBSTRUCTURE
     1 LIG         1 TEMP              0 ****  ****    0 ROOT
