@<TRIPOS>MOLECULE
LIG
   26    26     1     0     0
SMALL
bcc


@<TRIPOS>ATOM
      1 C            4.1180     0.1800     0.4090 c3         1 LIG      -0.046900
      2 C1           2.6680     0.1200     0.0190 cc         1 LIG       0.252400
      3 N            1.9580     1.2180     0.4100 nc         1 LIG      -0.481600
      4 C2           0.6590     1.2450     0.3450 cd         1 LIG       0.413000
      5 O            0.0220     2.2490     0.7060 o          1 LIG      -0.447000
      6 N1          -0.0490     0.1220    -0.1500 n          1 LIG      -0.506400
      7 C3          -1.5700     0.0360    -0.1800 c3         1 LIG       0.145400
      8 C4          -2.1320     0.8130    -1.3870 c3         1 LIG      -0.097433
      9 C5          -2.2490     0.5480     1.1230 c3         1 LIG      -0.097433
     10 C6          -2.0620    -1.4400    -0.2820 c3         1 LIG      -0.097433
     11 C7           0.6640    -0.7550    -0.9670 c          1 LIG       0.734700
     12 O1           0.1910    -1.4230    -1.8910 o          1 LIG      -0.719500
     13 C8           2.1100    -0.8770    -0.6700 cd         1 LIG      -0.331800
     14 Cl           2.9450    -2.2670    -1.2520 cl         1 LIG      -0.155400
     15 H            4.5920     1.0600    -0.0400 hc         1 LIG       0.039033
     16 H1           4.6960    -0.6950     0.1010 hc         1 LIG       0.039033
     17 H2           4.2100     0.2630     1.4980 hc         1 LIG       0.039033
     18 H3          -3.2240     0.7310    -1.4350 hc         1 LIG       0.035478
     19 H4          -1.7280     0.4310    -2.3310 hc         1 LIG       0.035478
     20 H5          -1.8840     1.8780    -1.3370 hc         1 LIG       0.035478
     21 H6          -1.7400     0.1550     2.0110 hc         1 LIG       0.035478
     22 H7          -3.2990     0.2340     1.1790 hc         1 LIG       0.035478
     23 H8          -2.2860     1.6380     1.1920 hc         1 LIG       0.035478
     24 H9          -3.1390    -1.5200    -0.0890 hc         1 LIG       0.035478
     25 H10         -1.9250    -1.8710    -1.2760 hc         1 LIG       0.035478
     26 H11         -1.5460    -2.0760     0.4470 hc         1 LIG       0.035478
@<TRIPOS>BOND
     1     1     2 1   
     2     2     3 1   
     3     3     4 2   
     4     4     5 1   
     5     4     6 1   
     6     6     7 1   
     7     7     8 1   
     8     7     9 1   
     9     7    10 1   
    10     6    11 1   
    11    11    12 2   
    12    11    13 1   
    13    13    14 1   
    14    13     2 2   
    15     1    15 1   
    16     1    16 1   
    17     1    17 1   
    18     8    18 1   
    19     8    19 1   
    20     8    20 1   
    21     9    21 1   
    22     9    22 1   
    23     9    23 1   
    24    10    24 1   
    25    10    25 1   
    26    10    26 1   
@<TRIPOS>SUBSTRUCTURE
     1 LIG         1 TEMP              0 ****  ****    0 ROOT
