@<TRIPOS>MOLECULE
LIG
   19    19     1     0     0
SMALL
bcc


@<TRIPOS>ATOM
      1 N           -2.7610    -0.0700     1.9700 nh         1 LIG      -0.945500
      2 C           -2.1870     0.0450     0.7210 ca         1 LIG       0.935900
      3 N1          -2.9940     0.0720    -0.3190 nb         1 LIG      -0.813000
      4 C1          -2.3460     0.1870    -1.4680 ca         1 LIG       0.808000
      5 Cl          -3.3190     0.2160    -2.8740 cl         1 LIG      -0.115000
      6 N2          -1.0400     0.2830    -1.6660 nb         1 LIG      -0.812000
      7 C2          -0.3370     0.2650    -0.5500 ca         1 LIG       0.938900
      8 N3           1.0380     0.3890    -0.7060 nh         1 LIG      -0.850900
      9 C3           1.8350    -0.3390     0.2660 c3         1 LIG       0.219800
     10 C4           3.3090    -0.1770    -0.0680 c3         1 LIG      -0.114100
     11 N4          -0.8680     0.1480     0.6630 nb         1 LIG      -0.846000
     12 H           -2.1520     0.3140     2.6790 hn         1 LIG       0.446300
     13 H1          -3.7190     0.2510     1.9590 hn         1 LIG       0.446300
     14 H2           1.2410     0.1820    -1.6780 hn         1 LIG       0.451800
     15 H3           1.5790    -1.4060     0.2530 h1         1 LIG       0.054200
     16 H4           1.6620     0.0450     1.2780 h1         1 LIG       0.054200
     17 H5           3.9260    -0.7140     0.6580 hc         1 LIG       0.047033
     18 H6           3.5320    -0.5720    -1.0650 hc         1 LIG       0.047033
     19 H7           3.6010     0.8790    -0.0530 hc         1 LIG       0.047033
@<TRIPOS>BOND
     1     1     2 1   
     2     2     3 ar  
     3     3     4 ar  
     4     4     5 1   
     5     4     6 ar  
     6     6     7 ar  
     7     7     8 1   
     8     8     9 1   
     9     9    10 1   
    10     7    11 ar  
    11    11     2 ar  
    12     1    12 1   
    13     1    13 1   
    14     8    14 1   
    15     9    15 1   
    16     9    16 1   
    17    10    17 1   
    18    10    18 1   
    19    10    19 1   
@<TRIPOS>SUBSTRUCTURE
     1 LIG         1 TEMP              0 ****  ****    0 ROOT
