@<TRIPOS>MOLECULE
LIG
   37    36     1     0     0
SMALL
bcc


@<TRIPOS>ATOM
      1 C            3.3570    -0.9170     1.8490 c3         1 LIG      -0.087100
      2 C1           3.7720    -1.0330     0.3920 c3         1 LIG      -0.013300
      3 S            2.3510    -1.3800    -0.6820 ss         1 LIG      -0.275700
      4 C2           1.5720     0.1970    -0.7000 c          1 LIG       0.688700
      5 O            2.2130     1.1960    -0.3930 o          1 LIG      -0.609100
      6 N            0.2220     0.2370    -1.0650 n          1 LIG      -0.453800
      7 C3          -0.5450    -0.8920    -1.6210 c3         1 LIG       0.095000
      8 C4          -1.6500    -1.4410    -0.7000 c3         1 LIG      -0.086700
      9 C5          -2.4160    -2.5560    -1.4180 c3         1 LIG      -0.092350
     10 C6          -1.1000    -1.9640     0.6260 c3         1 LIG      -0.092350
     11 C7          -0.4350     1.5510    -1.0490 c3         1 LIG       0.095000
     12 C8          -1.1130     1.9250     0.2860 c3         1 LIG      -0.086700
     13 C9          -0.1190     2.1250     1.4310 c3         1 LIG      -0.092350
     14 C10         -1.9380     3.2020     0.0980 c3         1 LIG      -0.092350
     15 H            2.6790    -0.0740     2.0160 hc         1 LIG       0.044700
     16 H1           4.2410    -0.7560     2.4740 hc         1 LIG       0.044700
     17 H2           2.8660    -1.8310     2.2000 hc         1 LIG       0.044700
     18 H3           4.4730    -1.8680     0.2880 h1         1 LIG       0.087700
     19 H4           4.2990    -0.1330     0.0610 h1         1 LIG       0.087700
     20 H5           0.1150    -1.7100    -1.9210 h1         1 LIG       0.058450
     21 H6          -0.9930    -0.5380    -2.5580 h1         1 LIG       0.058450
     22 H7          -2.3700    -0.6440    -0.4860 hc         1 LIG       0.050700
     23 H8          -2.8520    -2.1890    -2.3530 hc         1 LIG       0.038283
     24 H9          -3.2330    -2.9310    -0.7930 hc         1 LIG       0.038283
     25 H10         -1.7590    -3.3990    -1.6590 hc         1 LIG       0.038283
     26 H11         -1.9120    -2.3400     1.2580 hc         1 LIG       0.038283
     27 H12         -0.3930    -2.7850     0.4680 hc         1 LIG       0.038283
     28 H13         -0.5900    -1.1750     1.1870 hc         1 LIG       0.038283
     29 H14          0.3010     2.3210    -1.3110 h1         1 LIG       0.058450
     30 H15         -1.1770     1.5620    -1.8570 h1         1 LIG       0.058450
     31 H16         -1.8020     1.1310     0.5860 hc         1 LIG       0.050700
     32 H17          0.3980     1.1930     1.6740 hc         1 LIG       0.038283
     33 H18         -0.6360     2.4520     2.3400 hc         1 LIG       0.038283
     34 H19          0.6300     2.8840     1.1810 hc         1 LIG       0.038283
     35 H20         -1.3030     4.0460    -0.1910 hc         1 LIG       0.038283
     36 H21         -2.4580     3.4700     1.0240 hc         1 LIG       0.038283
     37 H22         -2.6960     3.0640    -0.6800 hc         1 LIG       0.038283
@<TRIPOS>BOND
     1     1     2 1   
     2     2     3 1   
     3     3     4 1   
     4     4     5 2   
     5     4     6 1   
     6     6     7 1   
     7     7     8 1   
     8     8     9 1   
     9     8    10 1   
    10     6    11 1   
    11    11    12 1   
    12    12    13 1   
    13    12    14 1   
    14     1    15 1   
    15     1    16 1   
    16     1    17 1   
    17     2    18 1   
    18     2    19 1   
    19     7    20 1   
    20     7    21 1   
    21     8    22 1   
    22     9    23 1   
    23     9    24 1   
    24     9    25 1   
    25    10    26 1   
    26    10    27 1   
    27    10    28 1   
    28    11    29 1   
    29    11    30 1   
    30    12    31 1   
    31    13    32 1   
    32    13    33 1   
    33    13    34 1   
    34    14    35 1   
    35    14    36 1   
    36    14    37 1   
@<TRIPOS>SUBSTRUCTURE
     1 LIG         1 TEMP              0 ****  ****    0 ROOT
