@<TRIPOS>MOLECULE
LIG
   43    44     1     0     0
SMALL
bcc


@<TRIPOS>ATOM
      1 C           -2.3680     4.9560    -0.6630 ca         1 LIG      -0.125000
      2 C1          -1.2520     4.2660    -0.1950 ca         1 LIG      -0.132000
      3 C2          -1.2900     2.8770    -0.0730 ca         1 LIG      -0.112500
      4 C3          -2.4470     2.1620    -0.4210 ca         1 LIG      -0.096300
      5 C4          -2.4860     0.6620    -0.2770 c3         1 LIG       0.185700
      6 O           -1.4750     0.1040    -1.1210 os         1 LIG      -0.433900
      7 C5          -1.3540    -1.2370    -0.9990 c          1 LIG       0.650700
      8 O1          -2.0260    -1.9780    -0.3030 o          1 LIG      -0.525000
      9 C6          -0.2310    -1.6850    -1.8420 ca         1 LIG      -0.072600
     10 C7          -0.2280    -1.3420    -3.2030 ca         1 LIG      -0.091000
     11 C8           0.7770    -1.8240    -4.0430 ca         1 LIG      -0.118000
     12 C9           1.7740    -2.6560    -3.5330 ca         1 LIG      -0.113000
     13 C10          1.7770    -2.9950    -2.1790 ca         1 LIG      -0.095000
     14 C11          0.7810    -2.5000    -1.3230 ca         1 LIG      -0.070600
     15 C12          0.8860    -2.8510     0.1090 c          1 LIG       0.647700
     16 O2           1.2570    -3.9420     0.5080 o          1 LIG      -0.530000
     17 O3           0.6350    -1.7510     0.8580 os         1 LIG      -0.427900
     18 C13          0.7440    -1.9180     2.2780 c3         1 LIG       0.142400
     19 C14          2.1670    -1.6370     2.7560 c3         1 LIG      -0.106400
     20 C15          2.5640    -0.1560     2.7180 c3         1 LIG      -0.076400
     21 C16          2.6610     0.4360     1.3210 c3         1 LIG      -0.097100
     22 C17         -3.5640     2.8670    -0.8900 ca         1 LIG      -0.112500
     23 C18         -3.5230     4.2580    -1.0110 ca         1 LIG      -0.132000
     24 H           -2.3380     6.0390    -0.7570 ha         1 LIG       0.132000
     25 H1          -0.3500     4.8100     0.0770 ha         1 LIG       0.133000
     26 H2          -0.4110     2.3480     0.2910 ha         1 LIG       0.139000
     27 H3          -2.3000     0.3990     0.7720 h1         1 LIG       0.063200
     28 H4          -3.4650     0.2700    -0.5760 h1         1 LIG       0.063200
     29 H5          -1.0140    -0.7120    -3.6140 ha         1 LIG       0.158000
     30 H6           0.7770    -1.5600    -5.0980 ha         1 LIG       0.144000
     31 H7           2.5510    -3.0390    -4.1900 ha         1 LIG       0.144000
     32 H8           2.5630    -3.6390    -1.7880 ha         1 LIG       0.158000
     33 H9           0.4310    -2.9270     2.5730 h1         1 LIG       0.068200
     34 H10          0.0390    -1.2220     2.7440 h1         1 LIG       0.068200
     35 H11          2.2530    -1.9780     3.7950 hc         1 LIG       0.056200
     36 H12          2.8860    -2.2150     2.1630 hc         1 LIG       0.056200
     37 H13          3.5440    -0.0550     3.2010 hc         1 LIG       0.037200
     38 H14          1.8580     0.4340     3.3140 hc         1 LIG       0.037200
     39 H15          1.6740     0.5460     0.8620 hc         1 LIG       0.036367
     40 H16          3.2840    -0.1850     0.6690 hc         1 LIG       0.036367
     41 H17          3.1100     1.4330     1.3680 hc         1 LIG       0.036367
     42 H18         -4.4750     2.3390    -1.1650 ha         1 LIG       0.139000
     43 H19         -4.3940     4.7960    -1.3760 ha         1 LIG       0.133000
@<TRIPOS>BOND
     1     1     2 ar  
     2     2     3 ar  
     3     3     4 ar  
     4     4     5 1   
     5     5     6 1   
     6     6     7 1   
     7     7     8 2   
     8     7     9 1   
     9     9    10 ar  
    10    10    11 ar  
    11    11    12 ar  
    12    12    13 ar  
    13    13    14 ar  
    14    14    15 1   
    15    15    16 2   
    16    15    17 1   
    17    17    18 1   
    18    18    19 1   
    19    19    20 1   
    20    20    21 1   
    21     4    22 ar  
    22    22    23 ar  
    23    23     1 ar  
    24    14     9 ar  
    25     1    24 1   
    26     2    25 1   
    27     3    26 1   
    28     5    27 1   
    29     5    28 1   
    30    10    29 1   
    31    11    30 1   
    32    12    31 1   
    33    13    32 1   
    34    18    33 1   
    35    18    34 1   
    36    19    35 1   
    37    19    36 1   
    38    20    37 1   
    39    20    38 1   
    40    21    39 1   
    41    21    40 1   
    42    21    41 1   
    43    22    42 1   
    44    23    43 1   
@<TRIPOS>SUBSTRUCTURE
     1 LIG         1 TEMP              0 ****  ****    0 ROOT
