@<TRIPOS>MOLECULE
LIG
    5     4     1     0     0
SMALL
bcc


@<TRIPOS>ATOM
      1 C           -0.0010    -0.0020     0.2430 c3         1 LIG       0.258000
      2 I            1.9510    -0.2460    -0.5240 i          1 LIG      -0.129900
      3 I1          -0.7570     1.8190    -0.5130 i          1 LIG      -0.129900
      4 I2          -1.1910    -1.5590    -0.5430 i          1 LIG      -0.129900
      5 H           -0.0030    -0.0120     1.3370 h3         1 LIG       0.131700
@<TRIPOS>BOND
     1     1     2 1   
     2     1     3 1   
     3     1     4 1   
     4     1     5 1   
@<TRIPOS>SUBSTRUCTURE
     1 LIG         1 TEMP              0 ****  ****    0 ROOT
