@<TRIPOS>MOLECULE
LIG
   21    21     1     0     0
SMALL
bcc


@<TRIPOS>ATOM
      1 C            0.9150    -1.4120    -0.2040 ca         1 LIG       0.020500
      2 C1           1.6450    -0.3860    -0.8130 ca         1 LIG      -0.206200
      3 N            2.9390    -0.6870    -1.4420 no         1 LIG       0.323200
      4 O            3.5540     0.2530    -1.9600 o          1 LIG      -0.182500
      5 O1           3.3310    -1.8600    -1.4080 o          1 LIG      -0.182500
      6 C2           1.1620     0.9260    -0.8140 ca         1 LIG       0.020500
      7 C3          -0.0740     1.1980    -0.2040 ca         1 LIG      -0.205700
      8 N1          -0.5100     2.5900    -0.2050 no         1 LIG       0.317700
      9 O2          -0.7450     3.1070     0.8930 o          1 LIG      -0.182750
     10 O3          -0.5920     3.1470    -1.3060 o          1 LIG      -0.182750
     11 C4          -0.8650     0.1940     0.3920 ca         1 LIG       0.107700
     12 C5          -2.2070     0.4970     1.0090 c3         1 LIG      -0.096800
     13 C6          -0.3180    -1.1070     0.3970 ca         1 LIG      -0.205700
     14 N2          -1.0170    -2.2090     1.0480 no         1 LIG       0.317700
     15 O4          -1.2920    -2.0730     2.2450 o          1 LIG      -0.182750
     16 O5          -1.2630    -3.2000     0.3510 o          1 LIG      -0.182750
     17 H            1.2920    -2.4350    -0.1870 ha         1 LIG       0.214000
     18 H1           1.7320     1.7340    -1.2750 ha         1 LIG       0.214000
     19 H2          -2.0860     0.7590     2.0640 hc         1 LIG       0.092033
     20 H3          -2.8890    -0.3550     0.9280 hc         1 LIG       0.092033
     21 H4          -2.7120     1.3180     0.4910 hc         1 LIG       0.092033
@<TRIPOS>BOND
     1     1     2 ar  
     2     2     3 1   
     3     3     4 1   
     4     3     5 1   
     5     2     6 ar  
     6     6     7 ar  
     7     7     8 1   
     8     8     9 1   
     9     8    10 1   
    10     7    11 ar  
    11    11    12 1   
    12    11    13 ar  
    13    13    14 1   
    14    14    15 1   
    15    14    16 1   
    16    13     1 ar  
    17     1    17 1   
    18     6    18 1   
    19    12    19 1   
    20    12    20 1   
    21    12    21 1   
@<TRIPOS>SUBSTRUCTURE
     1 LIG         1 TEMP              0 ****  ****    0 ROOT
