@<TRIPOS>MOLECULE
LIG
   24    26     1     0     0
SMALL
bcc


@<TRIPOS>ATOM
      1 C            1.0910    -1.0380     1.1420 c3         1 LIG      -0.084400
      2 C1           2.3510    -0.3720     0.5760 c3         1 LIG       0.038700
      3 Cl           3.0380     0.7650     1.7810 cl         1 LIG      -0.163400
      4 C2           1.8370     0.4000    -0.6560 c3         1 LIG       0.042700
      5 Cl1          1.8860    -0.6600    -2.0770 cl         1 LIG      -0.140400
      6 C3           0.4390     0.9000    -0.2340 c3         1 LIG      -0.074700
      7 C4          -0.8640     0.8690    -1.1070 c3         1 LIG       0.089600
      8 Cl2         -0.8870     2.1170    -2.3380 cl         1 LIG      -0.065400
      9 C5          -1.1870    -0.5430    -1.5570 c2         1 LIG      -0.027800
     10 Cl3         -1.2880    -1.0500    -3.1740 cl         1 LIG       0.005600
     11 C6          -1.4990    -1.2570    -0.4680 c2         1 LIG      -0.045800
     12 Cl4         -1.9680    -2.8830    -0.3910 cl         1 LIG      -0.006400
     13 C7          -1.4550    -0.3190     0.7170 c3         1 LIG       0.079600
     14 Cl5         -2.3380    -0.8210     2.1470 cl         1 LIG      -0.074400
     15 C8          -1.9730     0.9870     0.0080 c3         1 LIG       0.130800
     16 Cl6         -3.6770     0.9020    -0.5920 cl         1 LIG      -0.089900
     17 Cl7         -1.8900     2.4770     1.0180 cl         1 LIG      -0.089900
     18 C9           0.0260     0.0520     1.0150 c3         1 LIG      -0.067700
     19 H            1.2110    -1.3690     2.1790 hc         1 LIG       0.077200
     20 H1           0.8490    -1.9250     0.5490 hc         1 LIG       0.077200
     21 H2           3.1360    -1.0990     0.3460 h1         1 LIG       0.097700
     22 H3           2.4870     1.2460    -0.9050 h1         1 LIG       0.097700
     23 H4           0.5980     1.9320     0.1120 hc         1 LIG       0.098700
     24 H5           0.0800     0.6890     1.9090 hc         1 LIG       0.095700
@<TRIPOS>BOND
     1     1     2 1   
     2     2     3 1   
     3     2     4 1   
     4     4     5 1   
     5     4     6 1   
     6     6     7 1   
     7     7     8 1   
     8     7     9 1   
     9     9    10 1   
    10     9    11 2   
    11    11    12 1   
    12    11    13 1   
    13    13    14 1   
    14    13    15 1   
    15    15    16 1   
    16    15    17 1   
    17    13    18 1   
    18    18     1 1   
    19    18     6 1   
    20    15     7 1   
    21     1    19 1   
    22     1    20 1   
    23     2    21 1   
    24     4    22 1   
    25     6    23 1   
    26    18    24 1   
@<TRIPOS>SUBSTRUCTURE
     1 LIG         1 TEMP              0 ****  ****    0 ROOT
