@<TRIPOS>MOLECULE
LIG
   21    21     1     0     0
SMALL
bcc


@<TRIPOS>ATOM
      1 C            0.9110     0.7320    -0.8220 c3         1 LIG       0.410000
      2 N           -0.5100     1.0210    -0.6550 n3         1 LIG      -0.767900
      3 N1          -0.9090     2.2380    -1.1640 no         1 LIG       0.427500
      4 O           -1.9500     2.7130    -0.7090 o          1 LIG      -0.171000
      5 O1          -0.2030     2.7270    -2.0470 o          1 LIG      -0.171000
      6 C1          -1.0380     0.7170     0.6700 c3         1 LIG       0.410000
      7 N2          -0.5520    -0.5510     1.2030 n3         1 LIG      -0.767900
      8 N3          -1.4370    -1.2100     2.0100 no         1 LIG       0.427500
      9 O2          -2.1170    -0.5010     2.7540 o          1 LIG      -0.171000
     10 O3          -1.4620    -2.4390     1.9330 o          1 LIG      -0.171000
     11 C2           0.2090    -1.3490     0.2590 c3         1 LIG       0.410000
     12 N4           1.3110    -0.5370    -0.2230 n3         1 LIG      -0.767900
     13 N5           2.3270    -1.1800    -0.8720 no         1 LIG       0.427500
     14 O4           3.2150    -0.4590    -1.3290 o          1 LIG      -0.171000
     15 O5           2.2720    -2.4090    -0.9250 o          1 LIG      -0.171000
     16 H            1.1170     0.7090    -1.9010 h2         1 LIG       0.136200
     17 H1           1.5230     1.5290    -0.3780 h2         1 LIG       0.136200
     18 H2          -2.1340     0.6830     0.5880 h2         1 LIG       0.136200
     19 H3          -0.7770     1.5110     1.3830 h2         1 LIG       0.136200
     20 H4           0.6210    -2.2180     0.7880 h2         1 LIG       0.136200
     21 H5          -0.4170    -1.7260    -0.5620 h2         1 LIG       0.136200
@<TRIPOS>BOND
     1     1     2 1   
     2     2     3 1   
     3     3     4 1   
     4     3     5 1   
     5     2     6 1   
     6     6     7 1   
     7     7     8 1   
     8     8     9 1   
     9     8    10 1   
    10     7    11 1   
    11    11    12 1   
    12    12    13 1   
    13    13    14 1   
    14    13    15 1   
    15    12     1 1   
    16     1    16 1   
    17     1    17 1   
    18     6    18 1   
    19     6    19 1   
    20    11    20 1   
    21    11    21 1   
@<TRIPOS>SUBSTRUCTURE
     1 LIG         1 TEMP              0 ****  ****    0 ROOT
