@<TRIPOS>MOLECULE
LIG
    7     6     1     0     0
SMALL
bcc


@<TRIPOS>ATOM
      1 C            0.5570     0.1190     0.1390 c3         1 LIG       0.072100
      2 Cl           1.4170    -1.4390     0.3050 cl         1 LIG      -0.236400
      3 Cl1          1.2580     1.0630    -1.2080 cl         1 LIG      -0.236400
      4 C1          -0.9590    -0.0970    -0.0600 c          1 LIG       0.929600
      5 O           -1.3300    -0.7410    -1.0850 o          1 LIG      -0.797800
      6 O1          -1.6870     0.4080     0.8520 o          1 LIG      -0.797800
      7 H            0.7450     0.6860     1.0560 h2         1 LIG       0.067700
@<TRIPOS>BOND
     1     1     2 1   
     2     1     3 1   
     3     1     4 1   
     4     4     5 1   
     5     4     6 1   
     6     1     7 1   
@<TRIPOS>SUBSTRUCTURE
     1 LIG         1 TEMP              0 ****  ****    0 ROOT
