@<TRIPOS>MOLECULE
LIG
    7     6     1     0     0
SMALL
bcc


@<TRIPOS>ATOM
      1 C           -0.6090     0.0190    -0.0870 c3         1 LIG      -0.055000
      2 Cl          -1.2340     0.2570     1.5670 cl         1 LIG      -0.272400
      3 C1           0.9180    -0.0550    -0.0820 c          1 LIG       0.911600
      4 O            1.4060    -1.2170     0.0350 o          1 LIG      -0.829300
      5 O1           1.5160     1.0480    -0.2490 o          1 LIG      -0.829300
      6 H           -1.0420    -0.9060    -0.4820 h1         1 LIG       0.036700
      7 H1          -0.9560     0.8540    -0.7030 h1         1 LIG       0.036700
@<TRIPOS>BOND
     1     1     2 1   
     2     1     3 1   
     3     3     4 1   
     4     3     5 1   
     5     1     6 1   
     6     1     7 1   
@<TRIPOS>SUBSTRUCTURE
     1 LIG         1 TEMP              0 ****  ****    0 ROOT
