@<TRIPOS>MOLECULE
LIG
   33    34     1     0     0
SMALL
bcc


@<TRIPOS>ATOM
      1 O            4.7690     1.8100     0.9160 oh         1 LIG      -0.498100
      2 C            3.6340     1.0900     0.6920 ca         1 LIG       0.121100
      3 C1           3.5400     0.1930    -0.3640 ca         1 LIG      -0.185500
      4 C2           2.3550    -0.5270    -0.5590 ca         1 LIG      -0.089500
      5 C3           1.2510    -0.3570     0.2950 ca         1 LIG      -0.107300
      6 C4          -0.0740    -1.1400     0.1240 c3         1 LIG       0.049600
      7 C5          -1.2860    -0.1770     0.0650 ca         1 LIG      -0.107300
      8 C6          -1.2900     0.8790    -0.8710 ca         1 LIG      -0.089500
      9 C7          -2.3660     1.7640    -0.9620 ca         1 LIG      -0.185500
     10 C8          -3.4580     1.6060    -0.1220 ca         1 LIG       0.121100
     11 O1          -4.4890     2.4890    -0.2430 oh         1 LIG      -0.498100
     12 C9          -3.4900     0.5750     0.8080 ca         1 LIG      -0.185500
     13 C10         -2.4100    -0.3110     0.8990 ca         1 LIG      -0.089500
     14 C11         -0.1380    -2.1500     1.2990 c3         1 LIG      -0.086100
     15 C12         -0.1320    -1.9900    -1.1730 c3         1 LIG      -0.086100
     16 C13          1.3840     0.5600     1.3590 ca         1 LIG      -0.089500
     17 C14          2.5650     1.2790     1.5540 ca         1 LIG      -0.185500
     18 H            5.4190     1.5820     0.2320 ho         1 LIG       0.418000
     19 H1           4.3710     0.0360    -1.0440 ha         1 LIG       0.141000
     20 H2           2.3220    -1.2220    -1.3940 ha         1 LIG       0.137500
     21 H3          -0.4410     1.0270    -1.5370 ha         1 LIG       0.137500
     22 H4          -2.3480     2.5740    -1.6860 ha         1 LIG       0.141000
     23 H5          -5.1680     2.2610     0.4120 ho         1 LIG       0.418000
     24 H6          -4.3400     0.4420     1.4690 ha         1 LIG       0.141000
     25 H7          -2.4740    -1.1050     1.6380 ha         1 LIG       0.137500
     26 H8           0.7550    -2.7860     1.3220 hc         1 LIG       0.039700
     27 H9          -0.2030    -1.6510     2.2730 hc         1 LIG       0.039700
     28 H10         -1.0040    -2.8180     1.2130 hc         1 LIG       0.039700
     29 H11         -1.1000    -2.4970    -1.2700 hc         1 LIG       0.039700
     30 H12          0.6390    -2.7700    -1.1800 hc         1 LIG       0.039700
     31 H13          0.0050    -1.3830    -2.0750 hc         1 LIG       0.039700
     32 H14          0.5560     0.7300     2.0450 ha         1 LIG       0.137500
     33 H15          2.6460     1.9850     2.3760 ha         1 LIG       0.141000
@<TRIPOS>BOND
     1     1     2 1   
     2     2     3 ar  
     3     3     4 ar  
     4     4     5 ar  
     5     5     6 1   
     6     6     7 1   
     7     7     8 ar  
     8     8     9 ar  
     9     9    10 ar  
    10    10    11 1   
    11    10    12 ar  
    12    12    13 ar  
    13     6    14 1   
    14     6    15 1   
    15     5    16 ar  
    16    16    17 ar  
    17    17     2 ar  
    18    13     7 ar  
    19     1    18 1   
    20     3    19 1   
    21     4    20 1   
    22     8    21 1   
    23     9    22 1   
    24    11    23 1   
    25    12    24 1   
    26    13    25 1   
    27    14    26 1   
    28    14    27 1   
    29    14    28 1   
    30    15    29 1   
    31    15    30 1   
    32    15    31 1   
    33    16    32 1   
    34    17    33 1   
@<TRIPOS>SUBSTRUCTURE
     1 LIG         1 TEMP              0 ****  ****    0 ROOT
