@<TRIPOS>MOLECULE
LIG
   28    27     1     0     0
SMALL
bcc


@<TRIPOS>ATOM
      1 C           -0.1430     0.0210     0.4910 c2         1 LIG       0.409200
      2 N            0.9200    -0.1550    -0.2260 n2         1 LIG      -0.456200
      3 O            2.0570     0.0390     0.5820 os         1 LIG      -0.183600
      4 C1           3.2050    -0.1990    -0.1350 c          1 LIG       0.756100
      5 O1           3.2730    -0.5580    -1.3030 o          1 LIG      -0.527000
      6 N1           4.2970     0.0400     0.6600 n          1 LIG      -0.548900
      7 C2           5.6330     0.0130     0.1330 c3         1 LIG       0.082300
      8 C3          -1.5310    -0.1520    -0.0990 c3         1 LIG      -0.257500
      9 C4          -1.5620     0.2850    -1.5660 c3         1 LIG      -0.080600
     10 C5          -1.9120    -1.6300     0.0280 c3         1 LIG      -0.080600
     11 S           -2.6200     0.8870     0.9080 s6         1 LIG       1.318000
     12 O2          -2.2030     2.2680     0.7550 o          1 LIG      -0.639300
     13 O3          -2.6960     0.3030     2.2360 o          1 LIG      -0.639300
     14 C6          -4.2420     0.7480     0.1880 c3         1 LIG      -0.369300
     15 H           -0.0650     0.2420     1.5720 h4         1 LIG       0.023800
     16 H1           4.1130     0.4740     1.5530 hn         1 LIG       0.344500
     17 H2           5.8240     0.9580    -0.3830 h1         1 LIG       0.050367
     18 H3           6.3330    -0.1020     0.9630 h1         1 LIG       0.050367
     19 H4           5.7500    -0.8150    -0.5720 h1         1 LIG       0.050367
     20 H5          -0.8700    -0.3050    -2.1770 hc         1 LIG       0.056700
     21 H6          -1.2770     1.3370    -1.6760 hc         1 LIG       0.056700
     22 H7          -2.5580     0.1630    -2.0040 hc         1 LIG       0.056700
     23 H8          -2.9170    -1.8230    -0.3580 hc         1 LIG       0.056700
     24 H9          -1.8850    -1.9670     1.0710 hc         1 LIG       0.056700
     25 H10         -1.2150    -2.2650    -0.5310 hc         1 LIG       0.056700
     26 H11         -4.2290     1.1590    -0.8220 h1         1 LIG       0.119033
     27 H12         -4.9300     1.3300     0.8060 h1         1 LIG       0.119033
     28 H13         -4.5520    -0.2970     0.1860 h1         1 LIG       0.119033
@<TRIPOS>BOND
     1     1     2 2   
     2     2     3 1   
     3     3     4 1   
     4     4     5 2   
     5     4     6 1   
     6     6     7 1   
     7     1     8 1   
     8     8     9 1   
     9     8    10 1   
    10     8    11 1   
    11    11    12 2   
    12    11    13 2   
    13    11    14 1   
    14     1    15 1   
    15     6    16 1   
    16     7    17 1   
    17     7    18 1   
    18     7    19 1   
    19     9    20 1   
    20     9    21 1   
    21     9    22 1   
    22    10    23 1   
    23    10    24 1   
    24    10    25 1   
    25    14    26 1   
    26    14    27 1   
    27    14    28 1   
@<TRIPOS>SUBSTRUCTURE
     1 LIG         1 TEMP              0 ****  ****    0 ROOT
