@<TRIPOS>MOLECULE
LIG
   14    14     1     0     0
SMALL
bcc


@<TRIPOS>ATOM
      1 C            1.3690    -0.1720     0.6860 c3         1 LIG      -0.012300
      2 S            0.1130    -1.4380     1.0770 ss         1 LIG      -0.304200
      3 C1          -1.2900    -0.8410     0.0730 c3         1 LIG      -0.012300
      4 C2          -1.3850     0.6760    -0.0120 c3         1 LIG      -0.012300
      5 S1          -0.1130     1.4380    -1.0770 ss         1 LIG      -0.304200
      6 C3           1.3060     0.3370    -0.7470 c3         1 LIG      -0.012300
      7 H            2.3450    -0.6400     0.8570 h1         1 LIG       0.082700
      8 H1           1.2830     0.6490     1.4060 h1         1 LIG       0.082700
      9 H2          -2.1980    -1.2310     0.5440 h1         1 LIG       0.082700
     10 H3          -1.2330    -1.2930    -0.9230 h1         1 LIG       0.082700
     11 H4          -2.3540     0.9510    -0.4410 h1         1 LIG       0.082700
     12 H5          -1.3390     1.1350     0.9820 h1         1 LIG       0.082700
     13 H6           2.2080     0.9200    -0.9600 h1         1 LIG       0.082700
     14 H7           1.2890    -0.4910    -1.4640 h1         1 LIG       0.082700
@<TRIPOS>BOND
     1     1     2 1   
     2     2     3 1   
     3     3     4 1   
     4     4     5 1   
     5     5     6 1   
     6     6     1 1   
     7     1     7 1   
     8     1     8 1   
     9     3     9 1   
    10     3    10 1   
    11     4    11 1   
    12     4    12 1   
    13     6    13 1   
    14     6    14 1   
@<TRIPOS>SUBSTRUCTURE
     1 LIG         1 TEMP              0 ****  ****    0 ROOT
