@<TRIPOS>MOLECULE
LIG
   11    10     1     0     0
SMALL
bcc


@<TRIPOS>ATOM
      1 C            1.3090     0.0830     0.2700 c3         1 LIG       0.018000
      2 Cl           2.0180    -0.6310    -1.2020 cl         1 LIG      -0.170400
      3 C1          -0.1220     0.5690     0.0430 c3         1 LIG       0.031700
      4 Cl1         -0.6480     1.4440     1.5280 cl         1 LIG      -0.167400
      5 C2          -1.0850    -0.5810    -0.2650 c3         1 LIG       0.018000
      6 Cl2         -2.7190     0.0030    -0.6890 cl         1 LIG      -0.170400
      7 H            1.9640     0.9120     0.5600 h1         1 LIG       0.084200
      8 H1           1.3540    -0.6770     1.0570 h1         1 LIG       0.084200
      9 H2          -0.1380     1.3060    -0.7680 h1         1 LIG       0.103700
     10 H3          -1.1870    -1.2590     0.5890 h1         1 LIG       0.084200
     11 H4          -0.7480    -1.1690    -1.1230 h1         1 LIG       0.084200
@<TRIPOS>BOND
     1     1     2 1   
     2     1     3 1   
     3     3     4 1   
     4     3     5 1   
     5     5     6 1   
     6     1     7 1   
     7     1     8 1   
     8     3     9 1   
     9     5    10 1   
    10     5    11 1   
@<TRIPOS>SUBSTRUCTURE
     1 LIG         1 TEMP              0 ****  ****    0 ROOT
