@<TRIPOS>MOLECULE
LIG
    6     5     1     0     0
SMALL
bcc


@<TRIPOS>ATOM
      1 C           -0.3600     0.0010     0.1660 c3         1 LIG       0.104200
      2 Br          -1.2030    -1.5870    -0.5960 br         1 LIG      -0.067400
      3 Br1         -1.1670     1.6370    -0.5290 br         1 LIG      -0.067400
      4 C1           1.0870    -0.0110    -0.0590 c1         1 LIG       0.198700
      5 N            2.2380    -0.0210    -0.2150 n1         1 LIG      -0.303800
      6 H           -0.5960    -0.0190     1.2330 h2         1 LIG       0.135700
@<TRIPOS>BOND
     1     1     2 1   
     2     1     3 1   
     3     1     4 1   
     4     4     5 3   
     5     1     6 1   
@<TRIPOS>SUBSTRUCTURE
     1 LIG         1 TEMP              0 ****  ****    0 ROOT
