@<TRIPOS>MOLECULE
LIG
   18    18     1     0     0
SMALL
bcc


@<TRIPOS>ATOM
      1 C           -0.8880    -1.0570     0.4830 c3         1 LIG       0.029867
      2 Cl          -2.0160    -2.4480     0.2790 cl         1 LIG      -0.139067
      3 C1           0.5170    -1.3530    -0.0810 c3         1 LIG       0.029867
      4 Cl1          1.2040    -2.8080     0.7490 cl         1 LIG      -0.139067
      5 C2           1.4480    -0.1440     0.1520 c3         1 LIG       0.029867
      6 Cl2          3.1210    -0.4400    -0.4490 cl         1 LIG      -0.139067
      7 C3           0.8870     1.1720    -0.4240 c3         1 LIG       0.029867
      8 Cl3          0.9760     1.2210    -2.2210 cl         1 LIG      -0.139067
      9 C4          -0.5560     1.4400     0.0500 c3         1 LIG       0.029867
     10 Cl4         -0.5010     1.9330     1.7930 cl         1 LIG      -0.139067
     11 C5          -1.5090     0.2360    -0.0840 c3         1 LIG       0.029867
     12 Cl5         -2.0380     0.0430    -1.7940 cl         1 LIG      -0.139067
     13 H           -0.8050    -0.9430     1.5710 h1         1 LIG       0.109533
     14 H1           0.4660    -1.6060    -1.1450 h1         1 LIG       0.109533
     15 H2           1.5760    -0.0120     1.2330 h1         1 LIG       0.109533
     16 H3           1.5300     2.0020    -0.1050 h1         1 LIG       0.109533
     17 H4          -0.9700     2.3140    -0.4650 h1         1 LIG       0.109533
     18 H5          -2.4380     0.4510     0.4570 h1         1 LIG       0.109533
@<TRIPOS>BOND
     1     1     2 1   
     2     1     3 1   
     3     3     4 1   
     4     3     5 1   
     5     5     6 1   
     6     5     7 1   
     7     7     8 1   
     8     7     9 1   
     9     9    10 1   
    10     9    11 1   
    11    11    12 1   
    12    11     1 1   
    13     1    13 1   
    14     3    14 1   
    15     5    15 1   
    16     7    16 1   
    17     9    17 1   
    18    11    18 1   
@<TRIPOS>SUBSTRUCTURE
     1 LIG         1 TEMP              0 ****  ****    0 ROOT
