@<TRIPOS>MOLECULE
LIG
   24    24     1     0     0
SMALL
bcc


@<TRIPOS>ATOM
      1 C           -1.5480     2.7970    -0.0320 ca         1 LIG      -0.115000
      2 C1          -0.3650     3.2340    -0.6260 ca         1 LIG      -0.115000
      3 C2           0.7240     2.3670    -0.7310 ca         1 LIG      -0.092500
      4 C3           0.6300     1.0540    -0.2460 ca         1 LIG      -0.070600
      5 C4           1.8050     0.1820    -0.4400 c          1 LIG       0.646200
      6 O            2.9520     0.5380    -0.2270 o          1 LIG      -0.525000
      7 O1           1.4020    -0.9870    -0.9960 os         1 LIG      -0.431400
      8 C5           2.4680    -1.9090    -1.2230 c3         1 LIG       0.127200
      9 C6          -0.5490     0.6200     0.3700 ca         1 LIG      -0.070600
     10 C7          -0.6340    -0.7160     0.9970 c          1 LIG       0.646200
     11 O2           0.2570    -1.2180     1.6590 o          1 LIG      -0.525000
     12 O3          -1.8400    -1.2660     0.7090 os         1 LIG      -0.431400
     13 C8          -2.0140    -2.5780     1.2470 c3         1 LIG       0.127200
     14 C9          -1.6410     1.4980     0.4710 ca         1 LIG      -0.092500
     15 H           -2.3960     3.4750     0.0530 ha         1 LIG       0.144000
     16 H1          -0.2890     4.2500    -1.0070 ha         1 LIG       0.144000
     17 H2           1.6450     2.7130    -1.1980 ha         1 LIG       0.157500
     18 H3           2.9890    -2.1360    -0.2880 h1         1 LIG       0.053033
     19 H4           2.0370    -2.8360    -1.6120 h1         1 LIG       0.053033
     20 H5           3.1640    -1.5110    -1.9680 h1         1 LIG       0.053033
     21 H6          -3.0040    -2.9370     0.9510 h1         1 LIG       0.053033
     22 H7          -1.9670    -2.5530     2.3400 h1         1 LIG       0.053033
     23 H8          -1.2620    -3.2620     0.8410 h1         1 LIG       0.053033
     24 H9          -2.5620     1.1800     0.9580 ha         1 LIG       0.157500
@<TRIPOS>BOND
     1     1     2 ar  
     2     2     3 ar  
     3     3     4 ar  
     4     4     5 1   
     5     5     6 2   
     6     5     7 1   
     7     7     8 1   
     8     4     9 ar  
     9     9    10 1   
    10    10    11 2   
    11    10    12 1   
    12    12    13 1   
    13     9    14 ar  
    14    14     1 ar  
    15     1    15 1   
    16     2    16 1   
    17     3    17 1   
    18     8    18 1   
    19     8    19 1   
    20     8    20 1   
    21    13    21 1   
    22    13    22 1   
    23    13    23 1   
    24    14    24 1   
@<TRIPOS>SUBSTRUCTURE
     1 LIG         1 TEMP              0 ****  ****    0 ROOT
