@<TRIPOS>MOLECULE
LIG
   10     9     1     0     0
SMALL
bcc


@<TRIPOS>ATOM
      1 O            1.8040    -0.2660     0.2860 oh         1 LIG      -0.587800
      2 C            0.5830    -0.2760    -0.4410 c3         1 LIG       0.089400
      3 C1          -0.6120    -0.0620     0.4820 c3         1 LIG       0.089400
      4 O1          -1.8280    -0.0180    -0.2520 oh         1 LIG      -0.587800
      5 H            1.9070     0.6150     0.6850 ho         1 LIG       0.397000
      6 H1           0.6240     0.5000    -1.2130 h1         1 LIG       0.051200
      7 H2           0.4940    -1.2360    -0.9600 h1         1 LIG       0.051200
      8 H3          -0.6750    -0.8740     1.2130 h1         1 LIG       0.051200
      9 H4          -0.5060     0.8690     1.0490 h1         1 LIG       0.051200
     10 H5          -1.7900     0.7480    -0.8490 ho         1 LIG       0.397000
@<TRIPOS>BOND
     1     1     2 1   
     2     2     3 1   
     3     3     4 1   
     4     1     5 1   
     5     2     6 1   
     6     2     7 1   
     7     3     8 1   
     8     3     9 1   
     9     4    10 1   
@<TRIPOS>SUBSTRUCTURE
     1 LIG         1 TEMP              0 ****  ****    0 ROOT
