@<TRIPOS>MOLECULE
LIG
   33    32     1     0     0
SMALL
bcc


@<TRIPOS>ATOM
      1 C           -4.1960    -2.3680    -0.7620 c3         1 LIG      -0.118600
      2 C1          -2.9800    -2.4280     0.1400 c3         1 LIG       0.157400
      3 O           -2.6480    -1.1070     0.5340 os         1 LIG      -0.504200
      4 P           -1.1290    -0.7870     1.0220 p5         1 LIG       0.947200
      5 S           -0.6090    -1.8300     2.5820 s          1 LIG      -0.502000
      6 O1          -1.3050     0.7800     1.4180 os         1 LIG      -0.504200
      7 C2          -1.9190     1.6810     0.5120 c3         1 LIG       0.157400
      8 C3          -3.1590     2.2590     1.1610 c3         1 LIG      -0.118600
      9 S1           0.1000    -0.8380    -0.6950 ss         1 LIG      -0.553500
     10 C4           1.7850    -0.5100    -0.0930 c3         1 LIG       0.205700
     11 C5           1.9370     0.9210     0.4130 c3         1 LIG      -0.053300
     12 S2           3.6360     1.2920     0.9740 ss         1 LIG      -0.283200
     13 C6           4.5200     1.3020    -0.6200 c3         1 LIG      -0.019300
     14 C7           5.3870     0.0640    -0.7620 c3         1 LIG      -0.098100
     15 H           -5.0370    -1.8970    -0.2440 hc         1 LIG       0.056200
     16 H1          -3.9870    -1.7600    -1.6490 hc         1 LIG       0.056200
     17 H2          -4.4940    -3.3700    -1.0820 hc         1 LIG       0.056200
     18 H3          -2.1440    -2.8940    -0.3920 h1         1 LIG       0.070950
     19 H4          -3.2060    -3.0200     1.0310 h1         1 LIG       0.070950
     20 H5          -2.1770     1.1940    -0.4330 h1         1 LIG       0.070950
     21 H6          -1.2020     2.4790     0.2930 h1         1 LIG       0.070950
     22 H7          -2.9060     2.7570     2.1020 hc         1 LIG       0.056200
     23 H8          -3.8740     1.4660     1.4020 hc         1 LIG       0.056200
     24 H9          -3.6450     2.9820     0.4990 hc         1 LIG       0.056200
     25 H10          2.0300    -1.2350     0.6890 h1         1 LIG       0.088200
     26 H11          2.4510    -0.6950    -0.9390 h1         1 LIG       0.088200
     27 H12          1.2910     1.0880     1.2790 h1         1 LIG       0.106700
     28 H13          1.6550     1.6530    -0.3520 h1         1 LIG       0.106700
     29 H14          3.8170     1.3820    -1.4550 h1         1 LIG       0.073700
     30 H15          5.1560     2.1930    -0.6420 h1         1 LIG       0.073700
     31 H16          5.9200     0.0930    -1.7180 hc         1 LIG       0.043033
     32 H17          6.1380     0.0080     0.0320 hc         1 LIG       0.043033
     33 H18          4.7950    -0.8570    -0.7420 hc         1 LIG       0.043033
@<TRIPOS>BOND
     1     1     2 1   
     2     2     3 1   
     3     3     4 1   
     4     4     5 2   
     5     4     6 1   
     6     6     7 1   
     7     7     8 1   
     8     4     9 1   
     9     9    10 1   
    10    10    11 1   
    11    11    12 1   
    12    12    13 1   
    13    13    14 1   
    14     1    15 1   
    15     1    16 1   
    16     1    17 1   
    17     2    18 1   
    18     2    19 1   
    19     7    20 1   
    20     7    21 1   
    21     8    22 1   
    22     8    23 1   
    23     8    24 1   
    24    10    25 1   
    25    10    26 1   
    26    11    27 1   
    27    11    28 1   
    28    13    29 1   
    29    13    30 1   
    30    14    31 1   
    31    14    32 1   
    32    14    33 1   
@<TRIPOS>SUBSTRUCTURE
     1 LIG         1 TEMP              0 ****  ****    0 ROOT
