@<TRIPOS>MOLECULE
LIG
   17    16     1     0     0
SMALL
bcc


@<TRIPOS>ATOM
      1 C            1.8620    -0.1040     1.1270 c3         1 LIG      -0.106100
      2 C1           0.8460     0.9560     0.7090 c3         1 LIG       0.204800
      3 N            0.0090     0.5170    -0.4300 nh         1 LIG      -0.561700
      4 N1          -0.5310     1.5280    -1.0840 n2         1 LIG       0.149600
      5 O            0.3110     2.0890    -1.7940 o          1 LIG      -0.262300
      6 C2          -1.0050    -0.4610     0.0110 c3         1 LIG       0.204800
      7 C3          -1.6780    -1.1770    -1.1610 c3         1 LIG      -0.106100
      8 H            2.4690    -0.4260     0.2740 hc         1 LIG       0.046367
      9 H1           1.3870    -0.9850     1.5660 hc         1 LIG       0.046367
     10 H2           2.5400     0.3100     1.8810 hc         1 LIG       0.046367
     11 H3           0.2270     1.2450     1.5680 h1         1 LIG       0.049950
     12 H4           1.4310     1.8450     0.4360 h1         1 LIG       0.049950
     13 H5          -0.5400    -1.2450     0.6190 h1         1 LIG       0.049950
     14 H6          -1.7690     0.0140     0.6400 h1         1 LIG       0.049950
     15 H7          -0.9360    -1.6680    -1.8010 hc         1 LIG       0.046367
     16 H8          -2.3580    -1.9490    -0.7850 hc         1 LIG       0.046367
     17 H9          -2.2660    -0.4890    -1.7770 hc         1 LIG       0.046367
@<TRIPOS>BOND
     1     1     2 1   
     2     2     3 1   
     3     3     4 1   
     4     4     5 2   
     5     3     6 1   
     6     6     7 1   
     7     1     8 1   
     8     1     9 1   
     9     1    10 1   
    10     2    11 1   
    11     2    12 1   
    12     6    13 1   
    13     6    14 1   
    14     7    15 1   
    15     7    16 1   
    16     7    17 1   
@<TRIPOS>SUBSTRUCTURE
     1 LIG         1 TEMP              0 ****  ****    0 ROOT
