@<TRIPOS>MOLECULE
LIG
   18    18     1     0     0
SMALL
bcc


@<TRIPOS>ATOM
      1 C            2.3390    -1.0740     0.6700 ca         1 LIG      -0.088000
      2 C1           2.8650    -0.0310    -0.0910 ca         1 LIG      -0.043600
      3 Cl           4.5850     0.0780    -0.2260 cl         1 LIG      -0.105400
      4 C2           2.0050     0.8800    -0.7110 ca         1 LIG       0.064400
      5 Cl1          2.5920     2.1960    -1.6680 cl         1 LIG      -0.097400
      6 C3           0.6180     0.7450    -0.5680 ca         1 LIG      -0.214000
      7 C4           0.0790    -0.2980     0.1930 ca         1 LIG       0.189100
      8 O           -1.2610    -0.5030     0.3840 os         1 LIG      -0.261900
      9 C5          -2.1730     0.4160    -0.2400 c3         1 LIG      -0.019600
     10 C6          -3.6230     0.0170     0.0930 c          1 LIG       0.930600
     11 O1          -4.1120     0.5640     1.1250 o          1 LIG      -0.811300
     12 O2          -4.1740    -0.7630    -0.7380 o          1 LIG      -0.811300
     13 C7           0.9550    -1.2060     0.8100 ca         1 LIG      -0.029600
     14 Cl2          0.3750    -2.5240     1.7690 cl         1 LIG      -0.071400
     15 H            3.0010    -1.7860     1.1550 ha         1 LIG       0.150000
     16 H1          -0.0270     1.4660    -1.0600 ha         1 LIG       0.167000
     17 H2          -2.0470     0.3920    -1.3300 h1         1 LIG       0.026700
     18 H3          -1.9980     1.4330     0.1320 h1         1 LIG       0.026700
@<TRIPOS>BOND
     1     1     2 ar  
     2     2     3 1   
     3     2     4 ar  
     4     4     5 1   
     5     4     6 ar  
     6     6     7 ar  
     7     7     8 1   
     8     8     9 1   
     9     9    10 1   
    10    10    11 1   
    11    10    12 1   
    12     7    13 ar  
    13    13    14 1   
    14    13     1 ar  
    15     1    15 1   
    16     6    16 1   
    17     9    17 1   
    18     9    18 1   
@<TRIPOS>SUBSTRUCTURE
     1 LIG         1 TEMP              0 ****  ****    0 ROOT
