@<TRIPOS>MOLECULE
LIG
   15    15     1     0     0
SMALL
bcc


@<TRIPOS>ATOM
      1 N           -1.5170    -1.3420     1.4340 nh         1 LIG      -0.816200
      2 C           -0.8360    -0.4470     0.5600 ca         1 LIG       0.170600
      3 C1          -1.4180     0.7820     0.2040 ca         1 LIG      -0.186900
      4 Cl          -3.0500     1.1330     0.6840 cl         1 LIG      -0.113400
      5 C2          -0.6670     1.6760    -0.5510 ca         1 LIG       0.530300
      6 Cl1         -1.2720     3.2020    -1.0790 cl         1 LIG      -0.186000
      7 N1           0.5980     1.4520    -0.9530 nb         1 LIG      -0.657000
      8 CA           1.1850     0.2680    -0.5690 ca         1 LIG       0.439800
      9 C3           2.6030    -0.0180    -1.0100 c          1 LIG       0.839100
     10 O            3.5340     0.4630    -0.2910 o          1 LIG      -0.786300
     11 OXT          2.7380    -0.7330    -2.0540 o          1 LIG      -0.786300
     12 C4           0.5090    -0.6830     0.2000 ca         1 LIG      -0.151900
     13 Cl2          1.2560    -2.1680     0.7050 cl         1 LIG      -0.085400
     14 H           -2.5270    -1.3000     1.3390 hn         1 LIG       0.394300
     15 H1          -1.1350    -2.2860     1.3820 hn         1 LIG       0.394300
@<TRIPOS>BOND
     1     1     2 1   
     2     2     3 ar  
     3     3     4 1   
     4     3     5 ar  
     5     5     6 1   
     6     5     7 ar  
     7     7     8 ar  
     8     8     9 1   
     9     9    10 1   
    10     9    11 1   
    11     8    12 ar  
    12    12    13 1   
    13    12     2 ar  
    14     1    14 1   
    15     1    15 1   
@<TRIPOS>SUBSTRUCTURE
     1 LIG         1 TEMP              0 ****  ****    0 ROOT
