@<TRIPOS>MOLECULE
LIG
    7     6     1     0     0
SMALL
bcc


@<TRIPOS>ATOM
      1 O            1.3340    -0.4930    -1.2230 o          1 LIG      -0.149500
      2 N            0.9460    -0.0780    -0.1160 no         1 LIG       0.246300
      3 O1           1.7210     0.2270     0.8060 o          1 LIG      -0.149500
      4 C           -0.5650     0.0580     0.1010 c3         1 LIG       0.090900
      5 Cl          -0.9020     0.6620     1.7320 cl         1 LIG      -0.022400
      6 Br          -1.2090     1.3450    -1.2060 br         1 LIG      -0.007400
      7 Br1         -1.3250    -1.7210    -0.0950 br         1 LIG      -0.007400
@<TRIPOS>BOND
     1     1     2 1   
     2     2     3 1   
     3     2     4 1   
     4     4     5 1   
     5     4     6 1   
     6     4     7 1   
@<TRIPOS>SUBSTRUCTURE
     1 LIG         1 TEMP              0 ****  ****    0 ROOT
