@<TRIPOS>MOLECULE
LIG
   39    39     1     0     0
SMALL
bcc


@<TRIPOS>ATOM
      1 C            3.1690     0.4200     0.1840 ca         1 LIG      -0.005500
      2 C1           1.8740     0.7180    -0.2910 ca         1 LIG      -0.186200
      3 N            1.7710     1.8960    -1.1250 no         1 LIG       0.321700
      4 O            2.0750     1.7610    -2.3180 o          1 LIG      -0.183500
      5 O1           1.4330     2.9510    -0.5750 o          1 LIG      -0.183500
      6 C2           0.7410    -0.0710    -0.0030 ca         1 LIG       0.267600
      7 N1          -0.5750     0.1810    -0.4460 nh         1 LIG      -0.684000
      8 C3          -1.2060     1.3670     0.1840 c3         1 LIG       0.191300
      9 C4          -2.4310     0.9470     0.9980 c3         1 LIG      -0.085400
     10 C5          -3.1170     2.1480     1.6280 c3         1 LIG      -0.096100
     11 C6          -0.7480     0.0510    -1.9120 c3         1 LIG       0.191300
     12 C7          -2.1760    -0.3420    -2.3010 c3         1 LIG      -0.085400
     13 C8          -2.5760    -1.7220    -1.8040 c3         1 LIG      -0.096100
     14 C9           1.0110    -1.1990     0.7960 ca         1 LIG      -0.186200
     15 N2          -0.0560    -2.1180     1.1330 no         1 LIG       0.321700
     16 O2          -0.2630    -3.0470     0.3400 o          1 LIG      -0.183500
     17 O3          -0.6080    -1.9560     2.2290 o          1 LIG      -0.183500
     18 C10          2.2910    -1.5230     1.2900 ca         1 LIG      -0.005500
     19 C11          3.3850    -0.7030     0.9930 ca         1 LIG      -0.183300
     20 C12          4.7700    -1.0460     1.4900 c3         1 LIG       0.696200
     21 F            4.7560    -1.7270     2.6670 f          1 LIG      -0.224633
     22 F1           5.5390     0.0560     1.7010 f          1 LIG      -0.224633
     23 F2           5.4510    -1.8220     0.6070 f          1 LIG      -0.224633
     24 H            4.0070     1.0670    -0.0790 ha         1 LIG       0.189000
     25 H1          -1.4970     2.0970    -0.5820 h1         1 LIG       0.050200
     26 H2          -0.5110     1.8810     0.8610 h1         1 LIG       0.050200
     27 H3          -2.1320     0.2510     1.7900 hc         1 LIG       0.053200
     28 H4          -3.1520     0.4160     0.3690 hc         1 LIG       0.053200
     29 H5          -3.9860     1.8260     2.2100 hc         1 LIG       0.039367
     30 H6          -3.4630     2.8490     0.8620 hc         1 LIG       0.039367
     31 H7          -2.4370     2.6810     2.3010 hc         1 LIG       0.039367
     32 H8          -0.0630    -0.7090    -2.3110 h1         1 LIG       0.050200
     33 H9          -0.5060     0.9980    -2.4070 h1         1 LIG       0.050200
     34 H10         -2.2480    -0.3360    -3.3950 hc         1 LIG       0.053200
     35 H11         -2.8940     0.4020    -1.9400 hc         1 LIG       0.053200
     36 H12         -1.8770    -2.4850    -2.1620 hc         1 LIG       0.039367
     37 H13         -2.6040    -1.7620    -0.7120 hc         1 LIG       0.039367
     38 H14         -3.5740    -1.9790    -2.1720 hc         1 LIG       0.039367
     39 H15          2.4270    -2.4170     1.9020 ha         1 LIG       0.189000
@<TRIPOS>BOND
     1     1     2 ar  
     2     2     3 1   
     3     3     4 1   
     4     3     5 1   
     5     2     6 ar  
     6     6     7 1   
     7     7     8 1   
     8     8     9 1   
     9     9    10 1   
    10     7    11 1   
    11    11    12 1   
    12    12    13 1   
    13     6    14 ar  
    14    14    15 1   
    15    15    16 1   
    16    15    17 1   
    17    14    18 ar  
    18    18    19 ar  
    19    19    20 1   
    20    20    21 1   
    21    20    22 1   
    22    20    23 1   
    23    19     1 ar  
    24     1    24 1   
    25     8    25 1   
    26     8    26 1   
    27     9    27 1   
    28     9    28 1   
    29    10    29 1   
    30    10    30 1   
    31    10    31 1   
    32    11    32 1   
    33    11    33 1   
    34    12    34 1   
    35    12    35 1   
    36    13    36 1   
    37    13    37 1   
    38    13    38 1   
    39    18    39 1   
@<TRIPOS>SUBSTRUCTURE
     1 LIG         1 TEMP              0 ****  ****    0 ROOT
