@<TRIPOS>MOLECULE
LIG
   21    25     1     0     0
SMALL
bcc


@<TRIPOS>ATOM
      1 O           -3.4630     0.1660     0.3200 o          1 LIG      -0.408100
      2 C           -2.2500     0.1080     0.2080 c          1 LIG       0.598100
      3 C1          -1.1790     1.2460     0.1570 cy         1 LIG      -0.085600
      4 Cl          -1.8210     2.8890     0.2810 cl         1 LIG      -0.024400
      5 C2           0.0080     0.7780     1.1140 cy         1 LIG       0.032400
      6 Cl1          0.1920     1.5550     2.6920 cl         1 LIG      -0.022400
      7 C3           1.0160     1.1010    -0.0480 cy         1 LIG       0.016400
      8 Cl2          1.8080     2.7060    -0.0550 cl         1 LIG      -0.023400
      9 C4           1.9690    -0.0950    -0.1820 c3         1 LIG       0.149800
     10 Cl3          2.8450    -0.0850    -1.7230 cl         1 LIG      -0.072400
     11 Cl4          3.1070    -0.2010     1.1720 cl         1 LIG      -0.072400
     12 C5           0.8980    -1.1930    -0.1290 cy         1 LIG       0.016400
     13 Cl5          1.5220    -2.8660    -0.2530 cl         1 LIG      -0.023400
     14 C6          -0.0760    -0.8520     1.0560 cy         1 LIG       0.032400
     15 Cl6          0.0220    -1.7530     2.5750 cl         1 LIG      -0.022400
     16 C7          -1.3000    -1.1270     0.0730 cy         1 LIG      -0.085600
     17 Cl7         -2.1070    -2.7000     0.0830 cl         1 LIG      -0.024400
     18 C8          -0.2700    -0.7660    -1.0890 cy         1 LIG       0.032400
     19 Cl8         -0.4530    -1.5430    -2.6680 cl         1 LIG      -0.022400
     20 C9          -0.1860     0.8640    -1.0320 cy         1 LIG       0.032400
     21 Cl9         -0.2830     1.7650    -2.5510 cl         1 LIG      -0.022400
@<TRIPOS>BOND
     1     1     2 2   
     2     2     3 1   
     3     3     4 1   
     4     3     5 1   
     5     5     6 1   
     6     5     7 1   
     7     7     8 1   
     8     7     9 1   
     9     9    10 1   
    10     9    11 1   
    11     9    12 1   
    12    12    13 1   
    13    12    14 1   
    14    14    15 1   
    15    14    16 1   
    16    16    17 1   
    17    16    18 1   
    18    18    19 1   
    19    18    20 1   
    20    20    21 1   
    21    16     2 1   
    22    20     3 1   
    23    14     5 1   
    24    20     7 1   
    25    18    12 1   
@<TRIPOS>SUBSTRUCTURE
     1 LIG         1 TEMP              0 ****  ****    0 ROOT
