@<TRIPOS>MOLECULE
LIG
   16    16     1     0     0
SMALL
USER_CHARGES

@<TRIPOS>ATOM
      1 C1         1.2000     0.0000     0.0000 c3       1 LIG   0.000000
      2 C2         0.9623     0.8440     0.1515 c3       1 LIG   0.000000
      3 O3         0.1774     1.3484     0.1637 oh       1 LIG   0.000000
      4 C4        -0.8002     1.1972     0.0254 c3       1 LIG   0.000000
      5 C5        -1.4683     0.3931    -0.1362 c3       1 LIG   0.000000
      6 N6        -1.4348    -0.7080    -0.1726 n3       1 LIG   0.000000
      7 C7        -0.6424    -1.5523    -0.0503 c3       1 LIG   0.000000
      8 C8         0.5663    -1.6664     0.1183 c3       1 LIG   0.000000
      9 C9         1.5939    -0.9193     0.1781 c3       1 LIG   0.000000
     10 C10        1.8829     0.3754     0.0742 c3       1 LIG   0.000000
     11 S11        1.2167     1.5873    -0.0979 s3       1 LIG   0.000000
     12 C12       -0.1372     2.0755    -0.1800 c3       1 LIG   0.000000
     13 C13       -1.5283     1.5264    -0.0966 c3       1 LIG   0.000000
     14 C14       -2.2353     0.1450     0.0756 c3       1 LIG   0.000000
     15 C15       -1.8396    -1.4137     0.1783 c3       1 LIG   0.000000
     16 C16       -0.4664    -2.3542     0.1171 c3       1 LIG   0.000000
@<TRIPOS>BOND
     1     1     2 1
     2     2     3 1
     3     3     4 1
     4     4     5 1
     5     5     6 1
     6     6     7 1
     7     7     8 1
     8     8     9 1
     9     9    10 1
    10    10    11 1
    11    11    12 1
    12    12    13 1
    13    13    14 1
    14    14    15 1
    15    15    16 1
    16     1     6 1
@<TRIPOS>SUBSTRUCTURE
     1 LIG         1 TEMP              0 ****  ****    0 ROOT
