@<TRIPOS>MOLECULE
LIG
    5     4     1     0     0
SMALL
bcc


@<TRIPOS>ATOM
      1 C           -0.1390    -0.0050     0.0030 c3         1 LIG       0.014300
      2 Cl           1.6260     0.0650    -0.0310 cl         1 LIG      -0.190400
      3 H           -0.4870    -0.6330    -0.8210 h1         1 LIG       0.058700
      4 H1          -0.4610    -0.4310     0.9560 h1         1 LIG       0.058700
      5 H2          -0.5390     1.0050    -0.1060 h1         1 LIG       0.058700
@<TRIPOS>BOND
     1     1     2 1   
     2     1     3 1   
     3     1     4 1   
     4     1     5 1   
@<TRIPOS>SUBSTRUCTURE
     1 LIG         1 TEMP              0 ****  ****    0 ROOT
