@<TRIPOS>MOLECULE
LIG
   18    18     1     0     0
SMALL
bcc


@<TRIPOS>ATOM
      1 C            1.4710     0.3270    -0.0070 c3         1 LIG       0.031033
      2 Cl           1.9580     0.8110     1.6630 cl         1 LIG      -0.143733
      3 C1           1.0220    -1.1470    -0.0030 c3         1 LIG       0.031033
      4 Cl1          1.2110    -1.8050    -1.6740 cl         1 LIG      -0.143733
      5 C2          -0.4190    -1.3900     0.5050 c3         1 LIG       0.031033
      6 Cl2         -0.4470    -1.4120     2.3110 cl         1 LIG      -0.143733
      7 C3          -1.4620    -0.3660     0.0150 c3         1 LIG       0.031033
      8 Cl3         -1.9650    -0.7800    -1.6690 cl         1 LIG      -0.143733
      9 C4          -0.9560     1.0880     0.1260 c3         1 LIG       0.031033
     10 Cl4         -2.2110     2.2340    -0.4750 cl         1 LIG      -0.143733
     11 C5           0.3960     1.2680    -0.5920 c3         1 LIG       0.031033
     12 Cl5          0.9730     2.9750    -0.5540 cl         1 LIG      -0.143733
     13 H            2.3940     0.4280    -0.5910 h1         1 LIG       0.112700
     14 H1           1.7250    -1.7500     0.5840 h1         1 LIG       0.112700
     15 H2          -0.7380    -2.4040     0.2370 h1         1 LIG       0.112700
     16 H3          -2.3840    -0.4720     0.5990 h1         1 LIG       0.112700
     17 H4          -0.8460     1.3450     1.1850 h1         1 LIG       0.112700
     18 H5           0.2770     1.0500    -1.6580 h1         1 LIG       0.112700
@<TRIPOS>BOND
     1     1     2 1   
     2     1     3 1   
     3     3     4 1   
     4     3     5 1   
     5     5     6 1   
     6     5     7 1   
     7     7     8 1   
     8     7     9 1   
     9     9    10 1   
    10     9    11 1   
    11    11    12 1   
    12    11     1 1   
    13     1    13 1   
    14     3    14 1   
    15     5    15 1   
    16     7    16 1   
    17     9    17 1   
    18    11    18 1   
@<TRIPOS>SUBSTRUCTURE
     1 LIG         1 TEMP              0 ****  ****    0 ROOT
