@<TRIPOS>MOLECULE
LIG
    5     4     1     0     0
SMALL
bcc


@<TRIPOS>ATOM
      1 C           -0.0680    -0.1640     0.0080 c3         1 LIG       0.070400
      2 Cl          -1.3020     1.0910    -0.0580 cl         1 LIG      -0.134400
      3 Br           1.6980     0.6270    -0.0270 br         1 LIG      -0.128400
      4 H           -0.1660    -0.7320     0.9350 h2         1 LIG       0.095700
      5 H1          -0.1610    -0.8220    -0.8590 h2         1 LIG       0.095700
@<TRIPOS>BOND
     1     1     2 1   
     2     1     3 1   
     3     1     4 1   
     4     1     5 1   
@<TRIPOS>SUBSTRUCTURE
     1 LIG         1 TEMP              0 ****  ****    0 ROOT
