@<TRIPOS>MOLECULE
LIG
   28    29     1     0     0
SMALL
bcc


@<TRIPOS>ATOM
      1 C            0.6870     1.2810     0.3560 c2         1 LIG      -0.078200
      2 C1           1.0030     0.1260    -0.2650 ce         1 LIG      -0.253400
      3 C2           2.4180    -0.3960    -0.2690 c          1 LIG       0.575300
      4 O            2.6500    -1.4290    -0.8950 o          1 LIG      -0.508100
      5 C3           3.5090     0.3330     0.4730 c3         1 LIG      -0.199100
      6 C4           0.0700    -0.7800    -1.0410 c3         1 LIG       0.180700
      7 C5          -0.3920    -1.9770    -0.2170 c3         1 LIG      -0.096400
      8 C6          -1.4870    -1.4010     0.6720 c3         1 LIG      -0.104400
      9 C7          -2.0520    -0.1940    -0.0930 c3         1 LIG       0.135500
     10 C8          -1.9170     1.1250     0.6680 c3         1 LIG      -0.103400
     11 C9          -0.6510     1.9640     0.4470 c3         1 LIG      -0.086200
     12 N           -1.2600    -0.1480    -1.3620 n4         1 LIG      -0.773000
     13 H            1.4730     1.8550     0.8520 ha         1 LIG       0.164000
     14 H1           4.4420    -0.2310     0.3850 hc         1 LIG       0.083033
     15 H2           3.2590     0.4080     1.5350 hc         1 LIG       0.083033
     16 H3           3.6660     1.3230     0.0370 hc         1 LIG       0.083033
     17 H4           0.4970    -1.0720    -2.0060 hx         1 LIG       0.143700
     18 H5          -0.8180    -2.7430    -0.8780 hc         1 LIG       0.097200
     19 H6           0.4010    -2.4520     0.3670 hc         1 LIG       0.097200
     20 H7          -1.0760    -1.1120     1.6450 hc         1 LIG       0.093200
     21 H8          -2.2640    -2.1490     0.8640 hc         1 LIG       0.093200
     22 H9          -3.0970    -0.3700    -0.3720 hx         1 LIG       0.109700
     23 H10         -2.7690     1.7620     0.3910 hc         1 LIG       0.089700
     24 H11         -2.0450     0.9410     1.7430 hc         1 LIG       0.089700
     25 H12         -0.6000     2.6880     1.2710 hc         1 LIG       0.084700
     26 H13         -0.7730     2.5750    -0.4570 hc         1 LIG       0.084700
     27 H14         -1.1500     0.7890    -1.7670 hn         1 LIG       0.456300
     28 H15         -1.7240    -0.7170    -2.0830 hn         1 LIG       0.456300
@<TRIPOS>BOND
     1     1     2 2   
     2     2     3 1   
     3     3     4 2   
     4     3     5 1   
     5     2     6 1   
     6     6     7 1   
     7     7     8 1   
     8     8     9 1   
     9     9    10 1   
    10    10    11 1   
    11     9    12 1   
    12    11     1 1   
    13    12     6 1   
    14     1    13 1   
    15     5    14 1   
    16     5    15 1   
    17     5    16 1   
    18     6    17 1   
    19     7    18 1   
    20     7    19 1   
    21     8    20 1   
    22     8    21 1   
    23     9    22 1   
    24    10    23 1   
    25    10    24 1   
    26    11    25 1   
    27    11    26 1   
    28    12    27 1   
    29    12    28 1   
@<TRIPOS>SUBSTRUCTURE
     1 LIG         1 TEMP              0 ****  ****    0 ROOT
