@<TRIPOS>MOLECULE
LIG
   32    31     1     0     0
SMALL
bcc


@<TRIPOS>ATOM
      1 C            2.7340    -0.5820     1.6030 c3         1 LIG       0.005900
      2 S            1.0040    -1.1410     1.6940 ss         1 LIG      -0.239700
      3 C1           0.2180     0.2560     0.9890 c          1 LIG       0.693700
      4 O            0.6300     1.3640     1.3100 o          1 LIG      -0.613100
      5 N           -0.8280     0.0520     0.0810 n          1 LIG      -0.451800
      6 C2          -1.4020     1.2540    -0.5730 c3         1 LIG       0.113700
      7 C3          -2.1390     2.1630     0.4120 c3         1 LIG      -0.117350
      8 C4          -0.3740     2.0250    -1.4080 c3         1 LIG      -0.117350
      9 C5          -1.4730    -1.2440    -0.2680 c3         1 LIG       0.113700
     10 C6          -2.1750    -1.9200     0.9110 c3         1 LIG      -0.117350
     11 C7          -0.5700    -2.1940    -1.0560 c3         1 LIG      -0.117350
     12 C8           3.2430    -0.5110     0.1830 c2         1 LIG      -0.000800
     13 Cl           3.3680    -2.0800    -0.5900 cl         1 LIG      -0.070400
     14 C9           3.6490     0.6030    -0.4570 c2         1 LIG       0.069800
     15 Cl1          4.2370     0.5880    -2.0930 cl         1 LIG      -0.042400
     16 Cl2          3.6540     2.1650     0.2950 cl         1 LIG      -0.042400
     17 H            2.8340     0.3610     2.1470 h1         1 LIG       0.114200
     18 H1           3.3400    -1.3050     2.1610 h1         1 LIG       0.114200
     19 H2          -2.1570     0.9160    -1.2930 h1         1 LIG       0.052700
     20 H3          -2.8760     1.5930     0.9870 hc         1 LIG       0.049950
     21 H4          -1.4630     2.6460     1.1240 hc         1 LIG       0.049950
     22 H5          -2.6710     2.9570    -0.1240 hc         1 LIG       0.049950
     23 H6          -0.8740     2.7850    -2.0180 hc         1 LIG       0.049950
     24 H7           0.3680     2.5410    -0.7940 hc         1 LIG       0.049950
     25 H8           0.1610     1.3480    -2.0840 hc         1 LIG       0.049950
     26 H9          -2.2890    -1.0060    -0.9630 h1         1 LIG       0.052700
     27 H10         -2.8250    -2.7260     0.5520 hc         1 LIG       0.049950
     28 H11         -1.4820    -2.3690     1.6250 hc         1 LIG       0.049950
     29 H12         -2.8000    -1.2020     1.4540 hc         1 LIG       0.049950
     30 H13          0.1660    -2.7020    -0.4310 hc         1 LIG       0.049950
     31 H14         -1.1720    -2.9780    -1.5290 hc         1 LIG       0.049950
     32 H15         -0.0360    -1.6570    -1.8470 hc         1 LIG       0.049950
@<TRIPOS>BOND
     1     1     2 1   
     2     2     3 1   
     3     3     4 2   
     4     3     5 1   
     5     5     6 1   
     6     6     7 1   
     7     6     8 1   
     8     5     9 1   
     9     9    10 1   
    10     9    11 1   
    11     1    12 1   
    12    12    13 1   
    13    12    14 2   
    14    14    15 1   
    15    14    16 1   
    16     1    17 1   
    17     1    18 1   
    18     6    19 1   
    19     7    20 1   
    20     7    21 1   
    21     7    22 1   
    22     8    23 1   
    23     8    24 1   
    24     8    25 1   
    25     9    26 1   
    26    10    27 1   
    27    10    28 1   
    28    10    29 1   
    29    11    30 1   
    30    11    31 1   
    31    11    32 1   
@<TRIPOS>SUBSTRUCTURE
     1 LIG         1 TEMP              0 ****  ****    0 ROOT
