@<TRIPOS>MOLECULE
LIG
   23    26     1     0     0
SMALL
bcc


@<TRIPOS>ATOM
      1 C           -1.9420     0.5360     0.2830 c3         1 LIG       0.050700
      2 Cl          -3.0390     1.8080    -0.3150 cl         1 LIG      -0.157400
      3 C1          -2.3430    -0.7790    -0.3240 cx         1 LIG       0.056100
      4 O           -1.7340    -1.9310     0.2680 op         1 LIG      -0.364600
      5 C2          -1.1630    -1.4600    -0.9400 cx         1 LIG       0.072100
      6 C3          -0.0010    -0.5320    -0.8840 c3         1 LIG      -0.068700
      7 C4           1.2840    -0.8710    -0.0650 c3         1 LIG       0.095600
      8 Cl1          1.8310    -2.5280    -0.1890 cl         1 LIG      -0.063400
      9 C5           2.2610     0.1990    -0.5520 c2         1 LIG      -0.044800
     10 Cl2          3.5050    -0.0740    -1.6670 cl         1 LIG      -0.001400
     11 C6           1.8610     1.3680    -0.0300 c2         1 LIG      -0.040800
     12 Cl3          2.4860     2.9120    -0.3310 cl         1 LIG      -0.000400
     13 C7           0.6310     1.0850     0.8290 c3         1 LIG       0.080600
     14 Cl4          0.2380     2.3020     2.0270 cl         1 LIG      -0.065400
     15 C8           1.0610    -0.3120     1.3770 c3         1 LIG       0.136800
     16 Cl5         -0.1140    -1.1330     2.4300 cl         1 LIG      -0.082900
     17 Cl6          2.5800    -0.2730     2.3980 cl         1 LIG      -0.082900
     18 C9          -0.5040     0.8020    -0.2130 c3         1 LIG      -0.074700
     19 H           -2.0450     0.5270     1.3700 h1         1 LIG       0.115700
     20 H1          -3.3390    -0.8770    -0.7260 h1         1 LIG       0.127700
     21 H2          -1.2690    -2.0450    -1.8410 h1         1 LIG       0.119700
     22 H3           0.2650    -0.3210    -1.9310 hc         1 LIG       0.091700
     23 H4          -0.5090     1.5970    -0.9740 hc         1 LIG       0.101700
@<TRIPOS>BOND
     1     1     2 1   
     2     1     3 1   
     3     3     4 1   
     4     4     5 1   
     5     5     6 1   
     6     6     7 1   
     7     7     8 1   
     8     7     9 1   
     9     9    10 1   
    10     9    11 2   
    11    11    12 1   
    12    11    13 1   
    13    13    14 1   
    14    13    15 1   
    15    15    16 1   
    16    15    17 1   
    17    13    18 1   
    18    18     1 1   
    19     5     3 1   
    20    18     6 1   
    21    15     7 1   
    22     1    19 1   
    23     3    20 1   
    24     5    21 1   
    25     6    22 1   
    26    18    23 1   
@<TRIPOS>SUBSTRUCTURE
     1 LIG         1 TEMP              0 ****  ****    0 ROOT
