@<TRIPOS>MOLECULE
LIG
   17    17     1     0     0
SMALL
bcc


@<TRIPOS>ATOM
      1 C            1.8180    -0.7250    -1.0490 ca         1 LIG      -0.097000
      2 C1           1.6830     0.6520    -1.1820 ca         1 LIG      -0.170000
      3 C2           0.6110     1.3030    -0.5730 ca         1 LIG      -0.094000
      4 C3          -0.3470     0.5820     0.1610 ca         1 LIG      -0.135300
      5 C4          -1.4640     1.3310     0.8350 c3         1 LIG      -0.047800
      6 C5          -0.2470    -0.8190     0.2390 ca         1 LIG       0.136600
      7 N           -1.1130    -1.5740     1.0460 nh         1 LIG      -0.816200
      8 C6           0.8690    -1.4500    -0.3270 ca         1 LIG      -0.189000
      9 H            2.6670    -1.2360    -1.4960 ha         1 LIG       0.129000
     10 H1           2.4210     1.2220    -1.7400 ha         1 LIG       0.130000
     11 H2           0.5340     2.3850    -0.6620 ha         1 LIG       0.128000
     12 H3          -1.3510     2.4140     0.7190 hc         1 LIG       0.040700
     13 H4          -2.4260     1.0480     0.3980 hc         1 LIG       0.040700
     14 H5          -1.4730     1.1170     1.9090 hc         1 LIG       0.040700
     15 H6          -1.1490    -2.5560     0.7920 hn         1 LIG       0.386800
     16 H7          -2.0400    -1.1720     1.1390 hn         1 LIG       0.386800
     17 H8           1.0080    -2.5210    -0.2090 ha         1 LIG       0.129000
@<TRIPOS>BOND
     1     1     2 ar  
     2     2     3 ar  
     3     3     4 ar  
     4     4     5 1   
     5     4     6 ar  
     6     6     7 1   
     7     6     8 ar  
     8     8     1 ar  
     9     1     9 1   
    10     2    10 1   
    11     3    11 1   
    12     5    12 1   
    13     5    13 1   
    14     5    14 1   
    15     7    15 1   
    16     7    16 1   
    17     8    17 1   
@<TRIPOS>SUBSTRUCTURE
     1 LIG         1 TEMP              0 ****  ****    0 ROOT
