@<TRIPOS>MOLECULE
LIG
   18    18     1     0     0
SMALL
bcc


@<TRIPOS>ATOM
      1 C           -1.2550    -2.0800    -0.1200 ca         1 LIG      -0.125000
      2 C1          -2.0900    -1.1170    -0.6800 ca         1 LIG      -0.177000
      3 C2          -1.7310     0.2360    -0.6380 ca         1 LIG       0.064400
      4 Cl          -2.8470     1.3550    -1.3450 cl         1 LIG      -0.105400
      5 C3          -0.5270     0.6410    -0.0420 ca         1 LIG      -0.150600
      6 C4          -0.1950     2.0880     0.0190 c          1 LIG       0.919200
      7 O            0.4300     2.5620    -0.9800 o          1 LIG      -0.811300
      8 O1          -0.5500     2.7130     1.0640 o          1 LIG      -0.811300
      9 C5           0.3290    -0.3390     0.5030 ca         1 LIG       0.165100
     10 O2           1.5110    -0.0530     1.1430 os         1 LIG      -0.339900
     11 C6           2.4440     0.6570     0.3300 c3         1 LIG       0.098700
     12 C7          -0.0550    -1.6910     0.4750 ca         1 LIG      -0.029600
     13 Cl1          0.9450    -2.9330     1.1500 cl         1 LIG      -0.130400
     14 H           -1.5440    -3.1260    -0.1480 ha         1 LIG       0.125000
     15 H1          -3.0250    -1.4190    -1.1420 ha         1 LIG       0.127000
     16 H2           2.4310     1.7200     0.5870 h1         1 LIG       0.060700
     17 H3           2.2840     0.5060    -0.7440 h1         1 LIG       0.060700
     18 H4           3.4430     0.2780     0.5690 h1         1 LIG       0.060700
@<TRIPOS>BOND
     1     1     2 ar  
     2     2     3 ar  
     3     3     4 1   
     4     3     5 ar  
     5     5     6 1   
     6     6     7 1   
     7     6     8 1   
     8     5     9 ar  
     9     9    10 1   
    10    10    11 1   
    11     9    12 ar  
    12    12    13 1   
    13    12     1 ar  
    14     1    14 1   
    15     2    15 1   
    16    11    16 1   
    17    11    17 1   
    18    11    18 1   
@<TRIPOS>SUBSTRUCTURE
     1 LIG         1 TEMP              0 ****  ****    0 ROOT
