@<TRIPOS>MOLECULE
LIG
    4     3     1     0     0
SMALL
bcc


@<TRIPOS>ATOM
      1 O           -0.8420     1.5010    -0.1520 o          1 LIG      -0.637000
      2 Br           0.0150    -0.0050     0.4640 br         1 LIG       0.912000
      3 O1           1.7450    -0.0150    -0.1580 o          1 LIG      -0.637000
      4 O2          -0.9180    -1.4800    -0.1540 o          1 LIG      -0.637000
@<TRIPOS>BOND
     1     1     2 1   
     2     2     3 1   
     3     2     4 1   
@<TRIPOS>SUBSTRUCTURE
     1 LIG         1 TEMP              0 ****  ****    0 ROOT
