@<TRIPOS>MOLECULE
LIG
   11    10     1     0     0
SMALL
bcc


@<TRIPOS>ATOM
      1 C           -1.1550    -0.2740     0.0260 c3         1 LIG       0.187100
      2 N            0.1110     0.4180     0.3000 nh         1 LIG      -0.564700
      3 N1           0.2520     1.5590    -0.3390 n2         1 LIG       0.151600
      4 O           -0.5650     2.3970     0.0590 o          1 LIG      -0.256300
      5 C1           1.2330    -0.4900     0.0540 c3         1 LIG       0.187100
      6 H           -2.0200     0.3420     0.3000 h1         1 LIG       0.049033
      7 H1          -1.2300    -1.1880     0.6270 h1         1 LIG       0.049033
      8 H2          -1.2530    -0.5510    -1.0310 h1         1 LIG       0.049033
      9 H3           2.1870    -0.0200     0.3250 h1         1 LIG       0.049033
     10 H4           1.1460    -1.3890     0.6750 h1         1 LIG       0.049033
     11 H5           1.2930    -0.8040    -0.9960 h1         1 LIG       0.049033
@<TRIPOS>BOND
     1     1     2 1   
     2     2     3 1   
     3     3     4 2   
     4     2     5 1   
     5     1     6 1   
     6     1     7 1   
     7     1     8 1   
     8     5     9 1   
     9     5    10 1   
    10     5    11 1   
@<TRIPOS>SUBSTRUCTURE
     1 LIG         1 TEMP              0 ****  ****    0 ROOT
