@<TRIPOS>MOLECULE
LIG
   50    51     1     0     0
SMALL
bcc


@<TRIPOS>ATOM
      1 C            7.0920    -1.4440    -2.9620 c1         1 LIG      -0.138500
      2 C1           6.4720    -1.7560    -1.9820 c1         1 LIG      -0.160100
      3 C2           5.7160    -2.1420    -0.7810 c3         1 LIG       0.240500
      4 O            4.6320    -1.2350    -0.6090 os         1 LIG      -0.435600
      5 S            3.5590    -1.6510     0.5190 s4         1 LIG       0.853800
      6 O1           4.2260    -2.5960     1.4720 o          1 LIG      -0.500200
      7 O2           3.4670    -0.2250     1.2610 os         1 LIG      -0.408600
      8 C3           2.6440     0.7650     0.6270 c3         1 LIG       0.179100
      9 C4           3.2160     2.1360     1.0260 c3         1 LIG      -0.079400
     10 C5           2.5990     2.7120     2.3100 c3         1 LIG      -0.077400
     11 C6           2.1150     1.6340     3.2720 c3         1 LIG      -0.074400
     12 C7           1.0930     0.6910     2.6300 c3         1 LIG      -0.091400
     13 C8           1.1810     0.6560     1.0970 c3         1 LIG       0.118100
     14 O3           0.6170    -0.5780     0.6210 os         1 LIG      -0.377900
     15 C9          -0.6640    -0.4560     0.1630 ca         1 LIG       0.097100
     16 C10         -0.9910     0.3430    -0.9270 ca         1 LIG      -0.150000
     17 C11         -2.3140     0.4010    -1.3800 ca         1 LIG      -0.112000
     18 C12         -3.3300    -0.3540    -0.7690 ca         1 LIG      -0.073300
     19 C13         -4.7950    -0.3140    -1.2430 c3         1 LIG      -0.009700
     20 C14         -5.0350     0.6200    -2.4510 c3         1 LIG      -0.086100
     21 C15         -5.6970     0.1850    -0.0920 c3         1 LIG      -0.086100
     22 C16         -5.2450    -1.7300    -1.6650 c3         1 LIG      -0.086100
     23 C17         -2.9610    -1.1760     0.3150 ca         1 LIG      -0.112000
     24 C18         -1.6400    -1.2340     0.7700 ca         1 LIG      -0.150000
     25 H            7.6440    -1.1630    -3.8290 ha         1 LIG       0.163500
     26 H1           6.3740    -2.0990     0.0950 h1         1 LIG       0.074700
     27 H2           5.3470    -3.1680    -0.9060 h1         1 LIG       0.074700
     28 H3           2.7080     0.6600    -0.4650 h1         1 LIG       0.044700
     29 H4           3.0380     2.8550     0.2170 hc         1 LIG       0.058200
     30 H5           4.3030     2.0630     1.1510 hc         1 LIG       0.058200
     31 H6           3.3290     3.3620     2.8060 hc         1 LIG       0.040700
     32 H7           1.7500     3.3530     2.0410 hc         1 LIG       0.040700
     33 H8           1.6810     2.0940     4.1670 hc         1 LIG       0.053200
     34 H9           2.9780     1.0500     3.6170 hc         1 LIG       0.053200
     35 H10          0.0790     1.0050     2.9100 hc         1 LIG       0.053700
     36 H11          1.2080    -0.3150     3.0530 hc         1 LIG       0.053700
     37 H12          0.6390     1.5240     0.6960 h1         1 LIG       0.054700
     38 H13         -0.2270     0.9160    -1.4430 ha         1 LIG       0.142000
     39 H14         -2.5210     1.0460    -2.2300 ha         1 LIG       0.137500
     40 H15         -4.4510     0.3080    -3.3240 hc         1 LIG       0.037478
     41 H16         -4.7720     1.6580    -2.2180 hc         1 LIG       0.037478
     42 H17         -6.0900     0.6160    -2.7500 hc         1 LIG       0.037478
     43 H18         -5.3820     1.1780     0.2530 hc         1 LIG       0.037478
     44 H19         -6.7420     0.2580    -0.4120 hc         1 LIG       0.037478
     45 H20         -5.6730    -0.4860     0.7740 hc         1 LIG       0.037478
     46 H21         -4.6010    -2.1290    -2.4570 hc         1 LIG       0.037478
     47 H22         -5.2190    -2.4400    -0.8300 hc         1 LIG       0.037478
     48 H23         -6.2740    -1.7220    -2.0440 hc         1 LIG       0.037478
     49 H24         -3.7020    -1.7900     0.8210 ha         1 LIG       0.137500
     50 H25         -1.3810    -1.8840     1.6010 ha         1 LIG       0.142000
@<TRIPOS>BOND
     1     1     2 3   
     2     2     3 1   
     3     3     4 1   
     4     4     5 1   
     5     5     6 2   
     6     5     7 1   
     7     7     8 1   
     8     8     9 1   
     9     9    10 1   
    10    10    11 1   
    11    11    12 1   
    12    12    13 1   
    13    13    14 1   
    14    14    15 1   
    15    15    16 ar  
    16    16    17 ar  
    17    17    18 ar  
    18    18    19 1   
    19    19    20 1   
    20    19    21 1   
    21    19    22 1   
    22    18    23 ar  
    23    23    24 ar  
    24    13     8 1   
    25    24    15 ar  
    26     1    25 1   
    27     3    26 1   
    28     3    27 1   
    29     8    28 1   
    30     9    29 1   
    31     9    30 1   
    32    10    31 1   
    33    10    32 1   
    34    11    33 1   
    35    11    34 1   
    36    12    35 1   
    37    12    36 1   
    38    13    37 1   
    39    16    38 1   
    40    17    39 1   
    41    20    40 1   
    42    20    41 1   
    43    20    42 1   
    44    21    43 1   
    45    21    44 1   
    46    21    45 1   
    47    22    46 1   
    48    22    47 1   
    49    22    48 1   
    50    23    49 1   
    51    24    50 1   
@<TRIPOS>SUBSTRUCTURE
     1 LIG         1 TEMP              0 ****  ****    0 ROOT
