@<TRIPOS>MOLECULE
LIG
   30    31     1     0     0
SMALL
bcc


@<TRIPOS>ATOM
      1 C            2.8140     1.2140    -0.5090 ca         1 LIG      -0.076500
      2 C1           1.4390     0.9860    -0.3610 ca         1 LIG       0.019400
      3 Cl           0.4190     2.3760    -0.5160 cl         1 LIG      -0.028400
      4 C2           0.9560    -0.3210    -0.1960 ca         1 LIG       0.033800
      5 N           -0.4280    -0.5690    -0.0610 na         1 LIG       0.091300
      6 N1          -1.0440    -1.4420    -0.9050 nc         1 LIG      -0.429800
      7 C3          -2.3270    -1.4310    -0.5280 cd         1 LIG       0.515300
      8 C4          -3.2680    -2.2770    -1.1990 ch         1 LIG       0.137800
      9 N2          -4.0830    -2.9380    -1.6960 n1         1 LIG      -0.308800
     10 C5          -2.5530    -0.5550     0.5420 cd         1 LIG      -0.455800
     11 S           -4.1160    -0.2260     1.3480 sx         1 LIG       0.428400
     12 O           -3.7990     0.5080     2.6250 o          1 LIG      -0.488200
     13 C6          -4.7570     0.9450     0.1150 c3         1 LIG       0.688200
     14 F           -4.8910     0.3550    -1.1010 f          1 LIG      -0.245633
     15 F1          -3.9450     2.0190    -0.0580 f          1 LIG      -0.245633
     16 F2          -5.9810     1.4180     0.4580 f          1 LIG      -0.245633
     17 C7          -1.3230    -0.0320     0.8700 cc         1 LIG       0.342300
     18 N3          -0.9760     0.7770     1.9010 nh         1 LIG      -0.828200
     19 C8           1.8630    -1.3930    -0.1980 ca         1 LIG       0.019400
     20 Cl1          1.4060    -3.0370     0.0990 cl         1 LIG      -0.028400
     21 C9           3.2350    -1.1540    -0.3510 ca         1 LIG      -0.076500
     22 C10          3.7250     0.1490    -0.5130 ca         1 LIG      -0.140300
     23 C11          5.2070     0.4040    -0.6530 c3         1 LIG       0.690200
     24 F3           5.8790    -0.6430    -1.2020 f          1 LIG      -0.226633
     25 F4           5.7970     0.6480     0.5470 f          1 LIG      -0.226633
     26 F5           5.4850     1.4810    -1.4370 f          1 LIG      -0.226633
     27 H            3.1830     2.2320    -0.6460 ha         1 LIG       0.180000
     28 H1          -0.1360     1.3510     1.9050 hn         1 LIG       0.475300
     29 H2          -1.7140     1.1490     2.5100 hn         1 LIG       0.475300
     30 H3           3.9330    -1.9920    -0.3330 ha         1 LIG       0.180000
@<TRIPOS>BOND
     1     1     2 ar  
     2     2     3 1   
     3     2     4 ar  
     4     4     5 1   
     5     5     6 1   
     6     6     7 2   
     7     7     8 1   
     8     8     9 3   
     9     7    10 1   
    10    10    11 1   
    11    11    12 2   
    12    11    13 1   
    13    13    14 1   
    14    13    15 1   
    15    13    16 1   
    16    10    17 2   
    17    17    18 1   
    18     4    19 ar  
    19    19    20 1   
    20    19    21 ar  
    21    21    22 ar  
    22    22    23 1   
    23    23    24 1   
    24    23    25 1   
    25    23    26 1   
    26    22     1 ar  
    27    17     5 1   
    28     1    27 1   
    29    18    28 1   
    30    18    29 1   
    31    21    30 1   
@<TRIPOS>SUBSTRUCTURE
     1 LIG         1 TEMP              0 ****  ****    0 ROOT
