@<TRIPOS>MOLECULE
LIG
   28    28     1     0     0
SMALL
bcc


@<TRIPOS>ATOM
      1 C           -2.8900    -0.0730     0.7000 cc         1 LIG       0.074000
      2 C1          -2.2060    -1.2740     0.5990 cc         1 LIG      -0.252300
      3 N           -2.9140    -2.5370     0.8230 no         1 LIG       0.238300
      4 O           -4.1230    -2.4840     1.0980 o          1 LIG      -0.276000
      5 O1          -2.2710    -3.5930     0.7250 o          1 LIG      -0.276000
      6 C2          -0.8460    -1.2860     0.2870 cc         1 LIG      -0.014000
      7 C3          -0.1360    -0.0780     0.0650 cd         1 LIG      -0.227200
      8 C4           1.3620    -0.2310    -0.2710 c3         1 LIG       0.010500
      9 C5           1.7100     0.2990    -1.6680 c3         1 LIG      -0.091100
     10 C6           2.2690     0.3320     0.8430 c3         1 LIG      -0.085400
     11 C7           3.7270    -0.0850     0.6970 c3         1 LIG      -0.086100
     12 C8          -0.7900     1.1900     0.1580 c          1 LIG       0.563100
     13 O2          -0.1890     2.3000    -0.0290 o          1 LIG      -0.611100
     14 C9          -2.1770     1.1150     0.4810 cd         1 LIG      -0.368100
     15 N1          -2.9710     2.3370     0.6070 no         1 LIG       0.316100
     16 O3          -3.6030     2.7110    -0.3970 o          1 LIG      -0.261500
     17 O4          -3.1130     2.8080     1.7500 o          1 LIG      -0.261500
     18 H           -3.9480    -0.0330     0.9420 ha         1 LIG       0.167000
     19 H1          -0.3150    -2.2320     0.2100 ha         1 LIG       0.138000
     20 H2           1.5700    -1.3100    -0.3160 hc         1 LIG       0.026700
     21 H3           0.9820    -0.0440    -2.4110 hc         1 LIG       0.033700
     22 H4           2.6930    -0.0640    -1.9850 hc         1 LIG       0.033700
     23 H5           1.7420     1.3910    -1.7050 hc         1 LIG       0.033700
     24 H6           2.2260     1.4260     0.8740 hc         1 LIG       0.056700
     25 H7           1.9090    -0.0220     1.8180 hc         1 LIG       0.056700
     26 H8           4.1760     0.3390    -0.2060 hc         1 LIG       0.021033
     27 H9           3.8220    -1.1740     0.6550 hc         1 LIG       0.021033
     28 H10          4.3060     0.2720     1.5540 hc         1 LIG       0.021033
@<TRIPOS>BOND
     1     1     2 1   
     2     2     3 2   
     3     3     4 1   
     4     3     5 1   
     5     2     6 1   
     6     6     7 2   
     7     7     8 1   
     8     8     9 1   
     9     8    10 1   
    10    10    11 1   
    11     7    12 1   
    12    12    13 2   
    13    12    14 1   
    14    14    15 1   
    15    15    16 1   
    16    15    17 1   
    17    14     1 2   
    18     1    18 1   
    19     6    19 1   
    20     8    20 1   
    21     9    21 1   
    22     9    22 1   
    23     9    23 1   
    24    10    24 1   
    25    10    25 1   
    26    11    26 1   
    27    11    27 1   
    28    11    28 1   
@<TRIPOS>SUBSTRUCTURE
     1 LIG         1 TEMP              0 ****  ****    0 ROOT
