@<TRIPOS>MOLECULE
LIG
   21    21     1     0     0
SMALL
bcc


@<TRIPOS>ATOM
      1 C            2.7810    -0.8810     0.5270 ca         1 LIG      -0.133000
      2 C1           2.0100    -1.7420    -0.2500 ca         1 LIG      -0.129000
      3 C2           0.6850    -1.4200    -0.5480 ca         1 LIG      -0.126500
      4 C3           0.1120    -0.2300    -0.0730 ca         1 LIG      -0.073300
      5 C4          -1.3310     0.0990    -0.4100 c3         1 LIG      -0.024400
      6 C5          -1.4370     1.3850    -1.2340 c3         1 LIG      -0.088100
      7 C6          -2.1980     0.1860     0.8490 c3         1 LIG      -0.088100
      8 C7           0.9010     0.6270     0.7090 ca         1 LIG      -0.126500
      9 C8           2.2270     0.3040     1.0060 ca         1 LIG      -0.129000
     10 H            3.8120    -1.1320     0.7580 ha         1 LIG       0.130000
     11 H1           2.4410    -2.6670    -0.6250 ha         1 LIG       0.130000
     12 H2           0.1010    -2.1070    -1.1570 ha         1 LIG       0.130500
     13 H3          -1.7400    -0.7130    -1.0260 hc         1 LIG       0.049700
     14 H4          -0.8270     1.3190    -2.1420 hc         1 LIG       0.036367
     15 H5          -2.4740     1.5610    -1.5400 hc         1 LIG       0.036367
     16 H6          -1.1030     2.2620    -0.6700 hc         1 LIG       0.036367
     17 H7          -1.8940     1.0140     1.4990 hc         1 LIG       0.036367
     18 H8          -3.2490     0.3400     0.5830 hc         1 LIG       0.036367
     19 H9          -2.1320    -0.7390     1.4340 hc         1 LIG       0.036367
     20 H10          0.4900     1.5570     1.0940 ha         1 LIG       0.130500
     21 H11          2.8260     0.9770     1.6120 ha         1 LIG       0.130000
@<TRIPOS>BOND
     1     1     2 ar  
     2     2     3 ar  
     3     3     4 ar  
     4     4     5 1   
     5     5     6 1   
     6     5     7 1   
     7     4     8 ar  
     8     8     9 ar  
     9     9     1 ar  
    10     1    10 1   
    11     2    11 1   
    12     3    12 1   
    13     5    13 1   
    14     6    14 1   
    15     6    15 1   
    16     6    16 1   
    17     7    17 1   
    18     7    18 1   
    19     7    19 1   
    20     8    20 1   
    21     9    21 1   
@<TRIPOS>SUBSTRUCTURE
     1 LIG         1 TEMP              0 ****  ****    0 ROOT
