@<TRIPOS>MOLECULE
LIG
   28    28     1     0     0
SMALL
bcc


@<TRIPOS>ATOM
      1 N           -2.9200    -0.5740     0.4700 nh         1 LIG      -0.854900
      2 C           -1.5800    -0.8930     0.6500 ca         1 LIG       0.938900
      3 N1          -1.3320    -2.1550     0.9400 nb         1 LIG      -0.810000
      4 C1          -0.0450    -2.4070     1.1230 ca         1 LIG       0.805000
      5 Cl           0.3530    -4.0290     1.4890 cl         1 LIG      -0.118000
      6 N2           0.9740    -1.5690     1.0320 nb         1 LIG      -0.805000
      7 C2           0.6120    -0.3340     0.7370 ca         1 LIG       0.930900
      8 N3           1.5610     0.6670     0.6240 nh         1 LIG      -0.826900
      9 C3           2.8990     0.3030     0.1810 c3         1 LIG       0.214500
     10 C4           2.9120     0.0120    -1.3200 c3         1 LIG      -0.114100
     11 C5           3.8370     1.4680     0.4970 c3         1 LIG      -0.114100
     12 N4          -0.6430     0.0430     0.5280 nb         1 LIG      -0.846000
     13 C6          -3.1850     0.4760    -0.4960 c3         1 LIG       0.221800
     14 C7          -4.6880     0.6660    -0.6340 c3         1 LIG      -0.114100
     15 H           -3.4140    -1.4480     0.3200 hn         1 LIG       0.452800
     16 H1           1.1310     1.4580     0.1580 hn         1 LIG       0.433800
     17 H2           3.2700    -0.5730     0.7270 h1         1 LIG       0.088700
     18 H3           2.5440     0.8680    -1.8950 hc         1 LIG       0.045033
     19 H4           2.2770    -0.8470    -1.5640 hc         1 LIG       0.045033
     20 H5           3.9270    -0.2170    -1.6620 hc         1 LIG       0.045033
     21 H6           3.8400     1.6820     1.5720 hc         1 LIG       0.045033
     22 H7           3.5290     2.3830    -0.0210 hc         1 LIG       0.045033
     23 H8           4.8640     1.2350     0.1970 hc         1 LIG       0.045033
     24 H9          -2.7420     1.4250    -0.1710 h1         1 LIG       0.053700
     25 H10         -2.7650     0.2150    -1.4750 h1         1 LIG       0.053700
     26 H11         -5.1700    -0.2540    -0.9810 hc         1 LIG       0.046700
     27 H12         -5.1390     0.9390     0.3270 hc         1 LIG       0.046700
     28 H13         -4.9070     1.4600    -1.3540 hc         1 LIG       0.046700
@<TRIPOS>BOND
     1     1     2 1   
     2     2     3 ar  
     3     3     4 ar  
     4     4     5 1   
     5     4     6 ar  
     6     6     7 ar  
     7     7     8 1   
     8     8     9 1   
     9     9    10 1   
    10     9    11 1   
    11     7    12 ar  
    12     1    13 1   
    13    13    14 1   
    14    12     2 ar  
    15     1    15 1   
    16     8    16 1   
    17     9    17 1   
    18    10    18 1   
    19    10    19 1   
    20    10    20 1   
    21    11    21 1   
    22    11    22 1   
    23    11    23 1   
    24    13    24 1   
    25    13    25 1   
    26    14    26 1   
    27    14    27 1   
    28    14    28 1   
@<TRIPOS>SUBSTRUCTURE
     1 LIG         1 TEMP              0 ****  ****    0 ROOT
