@<TRIPOS>MOLECULE
LIG
   16    16     1     0     0
SMALL
bcc


@<TRIPOS>ATOM
      1 O           -3.4250    -0.0920     1.3060 o          1 LIG      -0.826300
      2 C           -2.8990    -0.0310     0.1520 c          1 LIG       0.926200
      3 O1          -3.5090     0.0170    -0.9610 o          1 LIG      -0.826300
      4 C1          -1.4140    -0.0150     0.0970 ca         1 LIG      -0.094600
      5 C2          -0.6940    -1.2190     0.0130 ca         1 LIG       0.030400
      6 Cl          -1.5530    -2.7380    -0.0280 cl         1 LIG      -0.120400
      7 C3           0.7160    -1.2040    -0.0380 ca         1 LIG       0.030400
      8 Cl1          1.6020    -2.7040    -0.1430 cl         1 LIG      -0.120400
      9 C4           1.4140     0.0150    -0.0060 ca         1 LIG      -0.094600
     10 C5           2.8990     0.0310    -0.0600 c          1 LIG       0.926200
     11 O2           3.5090    -0.0170     1.0520 o          1 LIG      -0.826300
     12 O3           3.4250     0.0920    -1.2140 o          1 LIG      -0.826300
     13 C6           0.6940     1.2190     0.0790 ca         1 LIG       0.030400
     14 Cl2          1.5530     2.7380     0.1200 cl         1 LIG      -0.120400
     15 C7          -0.7160     1.2040     0.1300 ca         1 LIG       0.030400
     16 Cl3         -1.6020     2.7040     0.2350 cl         1 LIG      -0.120400
@<TRIPOS>BOND
     1     1     2 1   
     2     2     3 1   
     3     2     4 1   
     4     4     5 ar  
     5     5     6 1   
     6     5     7 ar  
     7     7     8 1   
     8     7     9 ar  
     9     9    10 1   
    10    10    11 1   
    11    10    12 1   
    12     9    13 ar  
    13    13    14 1   
    14    13    15 ar  
    15    15    16 1   
    16    15     4 ar  
@<TRIPOS>SUBSTRUCTURE
     1 LIG         1 TEMP              0 ****  ****    0 ROOT
