@<TRIPOS>MOLECULE
LIG
   10     9     1     0     0
SMALL
bcc


@<TRIPOS>ATOM
      1 C           -0.7700    -0.6280     0.6590 c3         1 LIG      -0.089100
      2 C1          -0.1550     0.4430    -0.2350 c3         1 LIG       0.094800
      3 Cl          -0.3270     2.0370     0.6010 cl         1 LIG      -0.240400
      4 Cl1         -1.1080     0.5100    -1.7690 cl         1 LIG      -0.240400
      5 C2           1.3530     0.1900    -0.5690 c          1 LIG       0.934600
      6 O            1.9300     1.0430    -1.3090 o          1 LIG      -0.795300
      7 O1           1.8630    -0.8580    -0.0610 o          1 LIG      -0.795300
      8 H           -0.7160    -1.6180     0.1900 hc         1 LIG       0.044033
      9 H1          -0.2450    -0.6970     1.6190 hc         1 LIG       0.044033
     10 H2          -1.8250    -0.4230     0.8740 hc         1 LIG       0.044033
@<TRIPOS>BOND
     1     1     2 1   
     2     2     3 1   
     3     2     4 1   
     4     2     5 1   
     5     5     6 1   
     6     5     7 1   
     7     1     8 1   
     8     1     9 1   
     9     1    10 1   
@<TRIPOS>SUBSTRUCTURE
     1 LIG         1 TEMP              0 ****  ****    0 ROOT
