@<TRIPOS>MOLECULE
LIG
   20    19     1     0     0
SMALL
bcc


@<TRIPOS>ATOM
      1 O            1.9990    -1.6320    -1.5950 o          1 LIG      -0.752300
      2 C            2.3930    -0.7270    -0.7960 c          1 LIG       0.942600
      3 O1           3.4020     0.0220    -0.9250 o          1 LIG      -0.752300
      4 C1           1.5240    -0.5360     0.4660 c3         1 LIG       0.216100
      5 F            1.9060    -1.5110     1.3650 f          1 LIG      -0.224300
      6 O2           0.1130    -0.8080     0.2630 os         1 LIG      -0.495600
      7 C2          -0.5030    -0.1070    -0.8060 c3         1 LIG       0.642400
      8 F1           0.3500     0.7930    -1.3460 f          1 LIG      -0.185800
      9 F2          -0.7990    -1.0070    -1.7770 f          1 LIG      -0.185800
     10 C3          -1.7770     0.6030    -0.3780 c3         1 LIG       0.340600
     11 F3          -1.5040     1.5500     0.5700 f          1 LIG      -0.202300
     12 F4          -2.3230     1.2890    -1.4300 f          1 LIG      -0.202300
     13 C4          -2.7730    -0.4000     0.1560 c3         1 LIG       0.606900
     14 F5          -3.1290    -1.3350    -0.7570 f          1 LIG      -0.215633
     15 F6          -2.3460    -1.0550     1.2590 f          1 LIG      -0.215633
     16 F7          -3.9300     0.2250     0.5190 f          1 LIG      -0.215633
     17 C5           1.8130     0.8180     1.1020 c3         1 LIG       0.619900
     18 F8           0.9700     0.9750     2.1780 f          1 LIG      -0.240300
     19 F9           1.5570     1.8890     0.3170 f          1 LIG      -0.240300
     20 F10          3.0580     0.9550     1.6150 f          1 LIG      -0.240300
@<TRIPOS>BOND
     1     1     2 1   
     2     2     3 1   
     3     2     4 1   
     4     4     5 1   
     5     4     6 1   
     6     6     7 1   
     7     7     8 1   
     8     7     9 1   
     9     7    10 1   
    10    10    11 1   
    11    10    12 1   
    12    10    13 1   
    13    13    14 1   
    14    13    15 1   
    15    13    16 1   
    16     4    17 1   
    17    17    18 1   
    18    17    19 1   
    19    17    20 1   
@<TRIPOS>SUBSTRUCTURE
     1 LIG         1 TEMP              0 ****  ****    0 ROOT
