@<TRIPOS>MOLECULE
LIG
   10    10     1     0     0
SMALL
bcc


@<TRIPOS>ATOM
      1 C            1.2140    -0.1440    -0.0770 c3         1 LIG       0.037000
      2 Cl           1.7990     1.3750    -0.7890 cl         1 LIG      -0.177400
      3 C1          -0.1170     0.0990     0.5430 cx         1 LIG       0.050100
      4 O           -0.9510    -1.0640     0.6350 op         1 LIG      -0.401600
      5 C2          -1.3920    -0.0240    -0.2510 cx         1 LIG       0.063400
      6 H            1.9380    -0.4680     0.6760 h1         1 LIG       0.080200
      7 H1           1.1730    -0.8950    -0.8720 h1         1 LIG       0.080200
      8 H2          -0.0860     0.7660     1.3940 h1         1 LIG       0.103700
      9 H3          -2.2450     0.5670     0.0570 h1         1 LIG       0.082700
     10 H4          -1.3320    -0.2110    -1.3160 h1         1 LIG       0.082700
@<TRIPOS>BOND
     1     1     2 1   
     2     1     3 1   
     3     3     4 1   
     4     4     5 1   
     5     5     3 1   
     6     1     6 1   
     7     1     7 1   
     8     3     8 1   
     9     5     9 1   
    10     5    10 1   
@<TRIPOS>SUBSTRUCTURE
     1 LIG         1 TEMP              0 ****  ****    0 ROOT
