@<TRIPOS>MOLECULE
LIG
   24    26     1     0     0
SMALL
bcc


@<TRIPOS>ATOM
      1 C           -3.6260    -0.7730    -0.6330 ca         1 LIG      -0.117000
      2 C1          -3.6770     0.6140    -0.5000 ca         1 LIG      -0.117000
      3 C2          -2.5080     1.3350    -0.2480 ca         1 LIG      -0.087000
      4 C3          -1.2830     0.6660    -0.1290 ca         1 LIG      -0.128600
      5 C4          -1.2320    -0.7210    -0.2620 ca         1 LIG      -0.128600
      6 C5          -2.4070    -1.4420    -0.5140 ca         1 LIG      -0.087000
      7 C6           0.0530    -1.4380    -0.1380 c          1 LIG       0.585300
      8 O            0.0970    -2.6570    -0.2550 o          1 LIG      -0.525100
      9 C7           1.2830    -0.6660     0.1290 ca         1 LIG      -0.128600
     10 C8           2.5080    -1.3350     0.2480 ca         1 LIG      -0.087000
     11 C9           3.6770    -0.6140     0.5000 ca         1 LIG      -0.117000
     12 C10          3.6260     0.7730     0.6330 ca         1 LIG      -0.117000
     13 C11          2.4070     1.4420     0.5140 ca         1 LIG      -0.087000
     14 C12          1.2320     0.7210     0.2620 ca         1 LIG      -0.128600
     15 C13         -0.0530     1.4380     0.1380 c          1 LIG       0.585300
     16 O1          -0.0970     2.6570     0.2550 o          1 LIG      -0.525100
     17 H           -4.5370    -1.3350    -0.8290 ha         1 LIG       0.142000
     18 H1          -4.6270     1.1360    -0.5920 ha         1 LIG       0.142000
     19 H2          -2.5560     2.4180    -0.1450 ha         1 LIG       0.160000
     20 H3          -2.3750    -2.5250    -0.6190 ha         1 LIG       0.160000
     21 H4           2.5560    -2.4180     0.1450 ha         1 LIG       0.160000
     22 H5           4.6270    -1.1360     0.5920 ha         1 LIG       0.142000
     23 H6           4.5370     1.3350     0.8290 ha         1 LIG       0.142000
     24 H7           2.3750     2.5250     0.6190 ha         1 LIG       0.160000
@<TRIPOS>BOND
     1     1     2 ar  
     2     2     3 ar  
     3     3     4 ar  
     4     4     5 ar  
     5     5     6 ar  
     6     5     7 1   
     7     7     8 2   
     8     7     9 1   
     9     9    10 ar  
    10    10    11 ar  
    11    11    12 ar  
    12    12    13 ar  
    13    13    14 ar  
    14    14    15 1   
    15    15    16 2   
    16     6     1 ar  
    17    14     9 ar  
    18    15     4 1   
    19     1    17 1   
    20     2    18 1   
    21     3    19 1   
    22     6    20 1   
    23    10    21 1   
    24    11    22 1   
    25    12    23 1   
    26    13    24 1   
@<TRIPOS>SUBSTRUCTURE
     1 LIG         1 TEMP              0 ****  ****    0 ROOT
