@<TRIPOS>MOLECULE
LIG
   34    36     1     0     0
SMALL
bcc


@<TRIPOS>ATOM
      1 O            0.6070     0.0270     1.6840 oh         1 LIG      -0.586800
      2 C            0.3580     0.1880     0.2730 c3         1 LIG       0.194100
      3 C1          -1.0020     0.8850     0.1130 ca         1 LIG      -0.160300
      4 C2          -1.9130     0.5560    -0.9080 ca         1 LIG      -0.066000
      5 C3          -3.1360     1.2260    -1.0240 ca         1 LIG      -0.183000
      6 C4          -3.4540     2.2460    -0.1380 ca         1 LIG       0.169900
      7 F           -4.6230     2.8880    -0.2610 f          1 LIG      -0.128900
      8 C5          -2.5680     2.6210     0.8560 ca         1 LIG      -0.218000
      9 C6          -1.3550     1.9490     0.9680 ca         1 LIG       0.198900
     10 F1          -0.4900     2.3810     1.8970 f          1 LIG      -0.109900
     11 C7           0.4790    -1.2220    -0.3670 c3         1 LIG       0.027300
     12 N           -0.5580    -2.1680    -0.0050 na         1 LIG      -0.067900
     13 N1          -1.2580    -2.8010    -0.9700 nc         1 LIG      -0.537300
     14 C8          -2.0350    -3.6080    -0.2410 cd         1 LIG       0.512900
     15 N2          -1.8540    -3.5260     1.1090 nd         1 LIG      -0.681000
     16 C9          -0.9130    -2.6180     1.2280 cc         1 LIG       0.417900
     17 C10          1.4170     1.1540    -0.3380 c3         1 LIG       0.027300
     18 N3           2.7730     0.6500    -0.3110 na         1 LIG      -0.067900
     19 N4           3.2700     0.0770     0.8030 nc         1 LIG      -0.537300
     20 C11          4.5090    -0.2330     0.4050 cd         1 LIG       0.512900
     21 N5           4.7980     0.0950    -0.8880 nd         1 LIG      -0.681000
     22 C12          3.6910     0.6590    -1.3120 cc         1 LIG       0.417900
     23 H            1.5810    -0.0250     1.8130 ho         1 LIG       0.431000
     24 H1          -1.7070    -0.2260    -1.6360 ha         1 LIG       0.148000
     25 H2          -3.8420     0.9540    -1.8040 ha         1 LIG       0.159000
     26 H3          -2.8110     3.4310     1.5330 ha         1 LIG       0.170000
     27 H4           0.4840    -1.1450    -1.4610 h1         1 LIG       0.082200
     28 H5           1.4130    -1.7130    -0.0690 h1         1 LIG       0.082200
     29 H6          -2.7490    -4.2760    -0.7050 h5         1 LIG       0.074600
     30 H7          -0.4720    -2.2650     2.1510 h5         1 LIG       0.079600
     31 H8           1.1750     1.3810    -1.3840 h1         1 LIG       0.082200
     32 H9           1.4530     2.1000     0.2150 h1         1 LIG       0.082200
     33 H10          5.2170    -0.7120     1.0700 h5         1 LIG       0.074600
     34 H11          3.5160     1.0730    -2.2950 h5         1 LIG       0.079600
@<TRIPOS>BOND
     1     1     2 1   
     2     2     3 1   
     3     3     4 ar  
     4     4     5 ar  
     5     5     6 ar  
     6     6     7 1   
     7     6     8 ar  
     8     8     9 ar  
     9     9    10 1   
    10     2    11 1   
    11    11    12 1   
    12    12    13 1   
    13    13    14 2   
    14    14    15 1   
    15    15    16 2   
    16     2    17 1   
    17    17    18 1   
    18    18    19 1   
    19    19    20 2   
    20    20    21 1   
    21    21    22 2   
    22     9     3 ar  
    23    16    12 1   
    24    22    18 1   
    25     1    23 1   
    26     4    24 1   
    27     5    25 1   
    28     8    26 1   
    29    11    27 1   
    30    11    28 1   
    31    14    29 1   
    32    16    30 1   
    33    17    31 1   
    34    17    32 1   
    35    20    33 1   
    36    22    34 1   
@<TRIPOS>SUBSTRUCTURE
     1 LIG         1 TEMP              0 ****  ****    0 ROOT
