@<TRIPOS>MOLECULE
LIG
   44    43     1     0     0
SMALL
bcc


@<TRIPOS>ATOM
      1 C           -1.9870     5.3870     1.3880 c3         1 LIG      -0.094100
      2 C1          -1.8250     3.9290     0.9850 c3         1 LIG      -0.082067
      3 C2          -0.6010     3.7330     0.0860 c3         1 LIG      -0.083067
      4 C3          -0.4430     2.3020    -0.4290 c3         1 LIG       0.153367
      5 S           -0.0030     1.1360     0.8890 ss         1 LIG      -0.416500
      6 P            0.0270    -0.7400    -0.0430 p5         1 LIG       0.689500
      7 O            0.4340    -1.7810     0.9650 o          1 LIG      -0.556300
      8 S1           1.4130    -0.7300    -1.6100 ss         1 LIG      -0.416500
      9 C4           3.0100    -0.8020    -0.7510 c3         1 LIG       0.153367
     10 C5           4.1550    -0.7360    -1.7580 c3         1 LIG      -0.083067
     11 C6           5.5320    -0.8890    -1.1050 c3         1 LIG      -0.082067
     12 C7           5.8920     0.2560    -0.1720 c3         1 LIG      -0.094100
     13 S2          -1.8770    -1.1890    -0.7860 ss         1 LIG      -0.416500
     14 C8          -2.8480    -1.6230     0.6830 c3         1 LIG       0.153367
     15 C9          -2.7430    -3.0980     1.0750 c3         1 LIG      -0.083067
     16 C10         -3.2340    -4.1110     0.0350 c3         1 LIG      -0.082067
     17 C11         -4.6980    -3.9390    -0.3370 c3         1 LIG      -0.094100
     18 H           -2.1180     6.0260     0.5090 hc         1 LIG       0.034700
     19 H1          -1.1120     5.7400     1.9430 hc         1 LIG       0.034700
     20 H2          -2.8670     5.5070     2.0290 hc         1 LIG       0.034700
     21 H3          -1.7390     3.3230     1.8930 hc         1 LIG       0.047200
     22 H4          -2.7280     3.6000     0.4590 hc         1 LIG       0.047200
     23 H5           0.3080     4.0510     0.6120 hc         1 LIG       0.062867
     24 H6          -0.7000     4.3940    -0.7850 hc         1 LIG       0.062867
     25 H7          -1.3670     1.9710    -0.9110 h1         1 LIG       0.077367
     26 H8           0.3520     2.2790    -1.1810 h1         1 LIG       0.077367
     27 H9           3.0580    -1.7330    -0.1780 h1         1 LIG       0.077367
     28 H10          3.0580     0.0350    -0.0500 h1         1 LIG       0.077367
     29 H11          4.1220     0.2130    -2.3090 hc         1 LIG       0.062867
     30 H12          4.0440    -1.5400    -2.4970 hc         1 LIG       0.062867
     31 H13          6.2880    -0.9430    -1.8980 hc         1 LIG       0.047200
     32 H14          5.5810    -1.8370    -0.5560 hc         1 LIG       0.047200
     33 H15          6.9200     0.1390     0.1860 hc         1 LIG       0.034700
     34 H16          5.8210     1.2200    -0.6860 hc         1 LIG       0.034700
     35 H17          5.2380     0.2820     0.7040 hc         1 LIG       0.034700
     36 H18         -3.8920    -1.3560     0.4910 h1         1 LIG       0.077367
     37 H19         -2.5140    -0.9990     1.5180 h1         1 LIG       0.077367
     38 H20         -3.3190    -3.2440     1.9980 hc         1 LIG       0.062867
     39 H21         -1.7050    -3.3400     1.3320 hc         1 LIG       0.062867
     40 H22         -2.6180    -4.0660    -0.8700 hc         1 LIG       0.047200
     41 H23         -3.0980    -5.1180     0.4490 hc         1 LIG       0.047200
     42 H24         -4.8700    -2.9990    -0.8680 hc         1 LIG       0.034700
     43 H25         -5.0160    -4.7540    -0.9970 hc         1 LIG       0.034700
     44 H26         -5.3350    -3.9570     0.5530 hc         1 LIG       0.034700
@<TRIPOS>BOND
     1     1     2 1   
     2     2     3 1   
     3     3     4 1   
     4     4     5 1   
     5     5     6 1   
     6     6     7 2   
     7     6     8 1   
     8     8     9 1   
     9     9    10 1   
    10    10    11 1   
    11    11    12 1   
    12     6    13 1   
    13    13    14 1   
    14    14    15 1   
    15    15    16 1   
    16    16    17 1   
    17     1    18 1   
    18     1    19 1   
    19     1    20 1   
    20     2    21 1   
    21     2    22 1   
    22     3    23 1   
    23     3    24 1   
    24     4    25 1   
    25     4    26 1   
    26     9    27 1   
    27     9    28 1   
    28    10    29 1   
    29    10    30 1   
    30    11    31 1   
    31    11    32 1   
    32    12    33 1   
    33    12    34 1   
    34    12    35 1   
    35    14    36 1   
    36    14    37 1   
    37    15    38 1   
    38    15    39 1   
    39    16    40 1   
    40    16    41 1   
    41    17    42 1   
    42    17    43 1   
    43    17    44 1   
@<TRIPOS>SUBSTRUCTURE
     1 LIG         1 TEMP              0 ****  ****    0 ROOT
