@<TRIPOS>MOLECULE
LIG
   16    15     1     0     0
SMALL
bcc


@<TRIPOS>ATOM
      1 C            2.4400    -0.9150     0.2130 c3         1 LIG       0.154700
      2 O            1.1290    -1.1080    -0.2780 os         1 LIG      -0.597200
      3 P           -0.0050    -0.0760     0.2230 p5         1 LIG       1.549300
      4 O1           0.0610     0.2600     1.6810 o          1 LIG      -0.850300
      5 O2          -1.3670    -0.8090    -0.2330 os         1 LIG      -0.597200
      6 C1          -2.5780    -0.3150     0.3020 c3         1 LIG       0.154700
      7 C2           0.1420     1.3150    -0.8780 c3         1 LIG      -0.432300
      8 H            3.1100    -1.6170    -0.2900 h1         1 LIG       0.044033
      9 H1           2.7780     0.1040     0.0100 h1         1 LIG       0.044033
     10 H2           2.4680    -1.1100     1.2890 h1         1 LIG       0.044033
     11 H3          -3.4120    -0.8360    -0.1740 h1         1 LIG       0.044033
     12 H4          -2.6130    -0.5010     1.3790 h1         1 LIG       0.044033
     13 H5          -2.6730     0.7570     0.1070 h1         1 LIG       0.044033
     14 H6           1.0970     1.8260    -0.7300 hc         1 LIG       0.117367
     15 H7           0.0850     0.9910    -1.9210 hc         1 LIG       0.117367
     16 H8          -0.6600     2.0360    -0.6990 hc         1 LIG       0.117367
@<TRIPOS>BOND
     1     1     2 1   
     2     2     3 1   
     3     3     4 2   
     4     3     5 1   
     5     5     6 1   
     6     3     7 1   
     7     1     8 1   
     8     1     9 1   
     9     1    10 1   
    10     6    11 1   
    11     6    12 1   
    12     6    13 1   
    13     7    14 1   
    14     7    15 1   
    15     7    16 1   
@<TRIPOS>SUBSTRUCTURE
     1 LIG         1 TEMP              0 ****  ****    0 ROOT
