@<TRIPOS>MOLECULE
LIG
   12    12     1     0     0
SMALL
bcc


@<TRIPOS>ATOM
      1 N           -0.0250     1.2270    -0.0910 n          1 LIG      -0.505900
      2 C            1.1840     0.5630    -0.1320 c          1 LIG       0.509400
      3 S            2.6620     1.2660    -0.2980 s          1 LIG      -0.490400
      4 N1           0.9430    -0.7910    -0.0120 n          1 LIG      -0.505900
      5 C1          -0.4500    -1.0380     0.2590 c3         1 LIG       0.046000
      6 C2          -1.1200     0.2910    -0.0830 c3         1 LIG       0.046000
      7 H           -0.0920     2.2170    -0.2940 hn         1 LIG       0.332500
      8 H1           1.6990    -1.4530     0.1150 hn         1 LIG       0.332500
      9 H2          -0.8160    -1.8730    -0.3430 h1         1 LIG       0.058700
     10 H3          -0.5490    -1.2760     1.3230 h1         1 LIG       0.058700
     11 H4          -1.5560     0.2750    -1.0870 h1         1 LIG       0.058700
     12 H5          -1.8770     0.5920     0.6440 h1         1 LIG       0.058700
@<TRIPOS>BOND
     1     1     2 1   
     2     2     3 2   
     3     2     4 1   
     4     4     5 1   
     5     5     6 1   
     6     6     1 1   
     7     1     7 1   
     8     4     8 1   
     9     5     9 1   
    10     5    10 1   
    11     6    11 1   
    12     6    12 1   
@<TRIPOS>SUBSTRUCTURE
     1 LIG         1 TEMP              0 ****  ****    0 ROOT
