@<TRIPOS>MOLECULE
LIG
   28    28     1     0     0
SMALL
bcc


@<TRIPOS>ATOM
      1 C            1.3820     0.8030     0.6350 c3         1 LIG       0.447500
      2 N            1.4960    -0.6280     0.3310 n3         1 LIG      -0.803150
      3 N1           2.7830    -1.1020     0.2670 no         1 LIG       0.440750
      4 O            3.6030    -0.3640    -0.2810 o          1 LIG      -0.174250
      5 O1           2.9830    -2.2330     0.7100 o          1 LIG      -0.174250
      6 C1           0.5590    -1.4460     1.1080 c3         1 LIG       0.447500
      7 N2          -0.8210    -0.9600     0.9960 n3         1 LIG      -0.803150
      8 N3          -1.7040    -1.4950     1.9070 no         1 LIG       0.440750
      9 O2          -2.8840    -1.1670     1.7790 o          1 LIG      -0.174250
     10 O3          -1.2340    -2.2180     2.7850 o          1 LIG      -0.174250
     11 C2          -1.3240    -0.9020    -0.3810 c3         1 LIG       0.447500
     12 N4          -1.3480     0.4880    -0.8800 n3         1 LIG      -0.803150
     13 N5          -2.3060     0.6190    -1.8540 no         1 LIG       0.440750
     14 O4          -2.2760    -0.2020    -2.7730 o          1 LIG      -0.174250
     15 O5          -3.0750     1.5630    -1.6980 o          1 LIG      -0.174250
     16 C3          -0.0470     0.9060    -1.4330 c3         1 LIG       0.447500
     17 N6           0.8370     1.5710    -0.4790 n3         1 LIG      -0.803150
     18 N7           0.5890     2.8960    -0.2160 no         1 LIG       0.440750
     19 O6           1.0850     3.3550     0.8150 o          1 LIG      -0.174250
     20 O7          -0.0820     3.5130    -1.0430 o          1 LIG      -0.174250
     21 H            0.7600     0.9490     1.5300 h2         1 LIG       0.131700
     22 H1           2.3520     1.2270     0.9310 h2         1 LIG       0.131700
     23 H2           0.8960    -1.4270     2.1540 h2         1 LIG       0.131700
     24 H3           0.5790    -2.4900     0.7680 h2         1 LIG       0.131700
     25 H4          -2.3400    -1.3200    -0.4320 h2         1 LIG       0.131700
     26 H5          -0.7530    -1.5680    -1.0470 h2         1 LIG       0.131700
     27 H6          -0.1850     1.5730    -2.2990 h2         1 LIG       0.131700
     28 H7           0.4760     0.0590    -1.9010 h2         1 LIG       0.131700
@<TRIPOS>BOND
     1     1     2 1   
     2     2     3 1   
     3     3     4 1   
     4     3     5 1   
     5     2     6 1   
     6     6     7 1   
     7     7     8 1   
     8     8     9 1   
     9     8    10 1   
    10     7    11 1   
    11    11    12 1   
    12    12    13 1   
    13    13    14 1   
    14    13    15 1   
    15    12    16 1   
    16    16    17 1   
    17    17    18 1   
    18    18    19 1   
    19    18    20 1   
    20    17     1 1   
    21     1    21 1   
    22     1    22 1   
    23     6    23 1   
    24     6    24 1   
    25    11    25 1   
    26    11    26 1   
    27    16    27 1   
    28    16    28 1   
@<TRIPOS>SUBSTRUCTURE
     1 LIG         1 TEMP              0 ****  ****    0 ROOT
