@<TRIPOS>MOLECULE
LIG
    5     4     1     0     0
SMALL
bcc


@<TRIPOS>ATOM
      1 C           -0.1830    -0.0020     0.0170 c3         1 LIG      -0.039700
      2 Br           1.7430     0.0210    -0.1620 br         1 LIG      -0.166400
      3 H           -0.5880    -0.6420    -0.7680 h1         1 LIG       0.068700
      4 H1          -0.5450     1.0210    -0.0910 h1         1 LIG       0.068700
      5 H2          -0.4270    -0.3980     1.0040 h1         1 LIG       0.068700
@<TRIPOS>BOND
     1     1     2 1   
     2     1     3 1   
     3     1     4 1   
     4     1     5 1   
@<TRIPOS>SUBSTRUCTURE
     1 LIG         1 TEMP              0 ****  ****    0 ROOT
