@<TRIPOS>MOLECULE
LIG
   32    32     1     0     0
SMALL
bcc


@<TRIPOS>ATOM
      1 N           -2.6830     0.7500     0.3810 nh         1 LIG      -0.847900
      2 C           -1.4710     0.0790     0.2580 ca         1 LIG       0.932900
      3 N1          -1.5470    -1.2400     0.3160 nb         1 LIG      -0.843000
      4 C1          -0.3820    -1.8700     0.2130 ca         1 LIG       0.798300
      5 S           -0.3630    -3.6500     0.2760 ss         1 LIG      -0.196400
      6 C2          -1.9940    -3.9630     0.9950 c3         1 LIG      -0.068000
      7 N2           0.7970    -1.2840     0.0520 nb         1 LIG      -0.800000
      8 C3           0.7660     0.0360     0.0000 ca         1 LIG       0.923900
      9 N3           1.9340     0.7690    -0.1750 nh         1 LIG      -0.825900
     10 C4           3.1570     0.1940     0.3740 c3         1 LIG       0.212500
     11 C5           4.0770     1.3330     0.8180 c3         1 LIG      -0.114100
     12 C6           3.8610    -0.6490    -0.6890 c3         1 LIG      -0.114100
     13 N4          -0.3410     0.7560     0.1040 nb         1 LIG      -0.847000
     14 C7          -2.7730     1.9840    -0.3800 c3         1 LIG       0.214800
     15 C8          -4.1680     2.5700    -0.2260 c3         1 LIG      -0.112100
     16 H           -3.4080     0.0680     0.1870 hn         1 LIG       0.439800
     17 H1          -2.0970    -3.4580     1.9590 h1         1 LIG       0.075033
     18 H2          -2.7880    -3.6330     0.3190 h1         1 LIG       0.075033
     19 H3          -2.1090    -5.0380     1.1570 h1         1 LIG       0.075033
     20 H4           1.7130     1.7130     0.1240 hn         1 LIG       0.428800
     21 H5           2.9480    -0.4220     1.2580 h1         1 LIG       0.088700
     22 H6           3.5960     1.9410     1.5920 hc         1 LIG       0.043867
     23 H7           4.3250     1.9970    -0.0180 hc         1 LIG       0.043867
     24 H8           5.0130     0.9410     1.2310 hc         1 LIG       0.043867
     25 H9           3.2420    -1.4940    -1.0100 hc         1 LIG       0.043867
     26 H10          4.8010    -1.0560    -0.3020 hc         1 LIG       0.043867
     27 H11          4.0890    -0.0540    -1.5810 hc         1 LIG       0.043867
     28 H12         -2.0440     2.7200    -0.0180 h1         1 LIG       0.053200
     29 H13         -2.5780     1.7990    -1.4430 h1         1 LIG       0.053200
     30 H14         -4.3920     2.7780     0.8260 hc         1 LIG       0.045033
     31 H15         -4.9290     1.8760    -0.5990 hc         1 LIG       0.045033
     32 H16         -4.2530     3.5060    -0.7860 hc         1 LIG       0.045033
@<TRIPOS>BOND
     1     1     2 1   
     2     2     3 ar  
     3     3     4 ar  
     4     4     5 1   
     5     5     6 1   
     6     4     7 ar  
     7     7     8 ar  
     8     8     9 1   
     9     9    10 1   
    10    10    11 1   
    11    10    12 1   
    12     8    13 ar  
    13     1    14 1   
    14    14    15 1   
    15    13     2 ar  
    16     1    16 1   
    17     6    17 1   
    18     6    18 1   
    19     6    19 1   
    20     9    20 1   
    21    10    21 1   
    22    11    22 1   
    23    11    23 1   
    24    11    24 1   
    25    12    25 1   
    26    12    26 1   
    27    12    27 1   
    28    14    28 1   
    29    14    29 1   
    30    15    30 1   
    31    15    31 1   
    32    15    32 1   
@<TRIPOS>SUBSTRUCTURE
     1 LIG         1 TEMP              0 ****  ****    0 ROOT
