@<TRIPOS>MOLECULE
LIG
   11    10     1     0     0
SMALL
bcc


@<TRIPOS>ATOM
      1 C           -1.0700    -0.6960    -0.3140 c3         1 LIG       0.028000
      2 Cl          -2.0100     0.5000    -1.2420 cl         1 LIG      -0.183400
      3 C1          -0.0590    -0.0220     0.6070 c3         1 LIG      -0.001300
      4 Br           0.7920    -1.4020     1.7260 br         1 LIG      -0.139400
      5 C2           1.0040     0.8460    -0.0530 c3         1 LIG      -0.026000
      6 Br1          2.0370    -0.0790    -1.4230 br         1 LIG      -0.143400
      7 H           -1.7930    -1.2790     0.2670 h1         1 LIG       0.090200
      8 H1          -0.6040    -1.3830    -1.0270 h1         1 LIG       0.090200
      9 H2          -0.5960     0.5920     1.3400 h1         1 LIG       0.100700
     10 H3           1.7370     1.2120     0.6730 h1         1 LIG       0.092700
     11 H4           0.5620     1.7130    -0.5530 h1         1 LIG       0.092700
@<TRIPOS>BOND
     1     1     2 1   
     2     1     3 1   
     3     3     4 1   
     4     3     5 1   
     5     5     6 1   
     6     1     7 1   
     7     1     8 1   
     8     3     9 1   
     9     5    10 1   
    10     5    11 1   
@<TRIPOS>SUBSTRUCTURE
     1 LIG         1 TEMP              0 ****  ****    0 ROOT
