@<TRIPOS>MOLECULE
LIG
   12    12     1     0     0
SMALL
bcc


@<TRIPOS>ATOM
      1 C            1.0110     0.9180    -0.4730 ca         1 LIG      -0.117000
      2 C1          -0.3380     1.1710    -0.7360 ca         1 LIG      -0.109000
      3 C2          -1.3190     0.2850    -0.2800 ca         1 LIG       0.015400
      4 Cl          -2.9670     0.6570    -0.6390 cl         1 LIG      -0.062400
      5 C3          -0.9460    -0.8570     0.4410 ca         1 LIG       0.024400
      6 Cl1         -2.1040    -1.9950     1.0350 cl         1 LIG      -0.060400
      7 C4           0.4040    -1.1090     0.7040 ca         1 LIG      -0.114000
      8 C5           1.3740    -0.2200     0.2450 ca         1 LIG       0.022400
      9 Cl2          3.0350    -0.5280     0.5670 cl         1 LIG      -0.077400
     10 H            1.7690     1.6110    -0.8300 ha         1 LIG       0.156000
     11 H1          -0.6170     2.0600    -1.2960 ha         1 LIG       0.157000
     12 H2           0.6970    -1.9940     1.2630 ha         1 LIG       0.166000
@<TRIPOS>BOND
     1     1     2 ar  
     2     2     3 ar  
     3     3     4 1   
     4     3     5 ar  
     5     5     6 1   
     6     5     7 ar  
     7     7     8 ar  
     8     8     9 1   
     9     8     1 ar  
    10     1    10 1   
    11     2    11 1   
    12     7    12 1   
@<TRIPOS>SUBSTRUCTURE
     1 LIG         1 TEMP              0 ****  ****    0 ROOT
