@<TRIPOS>MOLECULE
LIG
    5     4     1     0     0
SMALL
bcc


@<TRIPOS>ATOM
      1 Cl           1.4620    -0.9520    -0.3610 cl         1 LIG      -0.081400
      2 C            0.0000     0.0000     0.0000 c3         1 LIG       0.324600
      3 Cl1          0.1770     1.6390    -0.6760 cl         1 LIG      -0.081400
      4 Cl2         -1.4200    -0.7930    -0.7280 cl         1 LIG      -0.081400
      5 Cl3         -0.2190     0.1050     1.7650 cl         1 LIG      -0.081400
@<TRIPOS>BOND
     1     1     2 1   
     2     2     3 1   
     3     2     4 1   
     4     2     5 1   
@<TRIPOS>SUBSTRUCTURE
     1 LIG         1 TEMP              0 ****  ****    0 ROOT
