@<TRIPOS>MOLECULE
LIG
   31    31     1     0     0
SMALL
bcc


@<TRIPOS>ATOM
      1 N            4.3490    -0.1080    -0.6290 n          1 LIG      -0.564900
      2 C            3.1460     0.4640    -0.2390 c          1 LIG       0.754100
      3 O            3.0620     1.6790    -0.0910 o          1 LIG      -0.615100
      4 N1           2.1180    -0.4660    -0.0340 n          1 LIG      -0.406300
      5 C1           0.8150     0.0520    -0.0490 cc         1 LIG       0.413300
      6 N2           0.4300     1.2790    -0.3240 nd         1 LIG      -0.347000
      7 N3          -0.9390     1.4420    -0.2810 nd         1 LIG      -0.312000
      8 C2          -1.5720     0.3280     0.0190 cc         1 LIG       0.318700
      9 C3          -3.0830     0.2000     0.1450 c3         1 LIG      -0.075300
     10 C4          -3.4740    -0.2530     1.5640 c3         1 LIG      -0.091100
     11 C5          -3.7490     1.5680    -0.1180 c3         1 LIG      -0.091100
     12 C6          -3.6310    -0.8020    -0.8880 c3         1 LIG      -0.091100
     13 S           -0.5080    -1.0070     0.2550 ss         1 LIG      -0.048800
     14 C7           2.4070    -1.8760     0.2220 c3         1 LIG       0.057300
     15 C8           5.4800     0.7510    -0.8900 c3         1 LIG       0.083300
     16 H            4.2440    -0.8810    -1.2680 hn         1 LIG       0.311500
     17 H1          -3.0710     0.4290     2.3230 hc         1 LIG       0.044589
     18 H2          -3.0990    -1.2570     1.7920 hc         1 LIG       0.044589
     19 H3          -4.5630    -0.2800     1.6840 hc         1 LIG       0.044589
     20 H4          -3.4060     2.3240     0.5980 hc         1 LIG       0.044589
     21 H5          -4.8400     1.5020    -0.0330 hc         1 LIG       0.044589
     22 H6          -3.5180     1.9380    -1.1240 hc         1 LIG       0.044589
     23 H7          -3.3430    -0.5180    -1.9070 hc         1 LIG       0.044589
     24 H8          -3.2580    -1.8170    -0.7110 hc         1 LIG       0.044589
     25 H9          -4.7260    -0.8480    -0.8510 hc         1 LIG       0.044589
     26 H10          3.4680    -2.0540     0.4170 h1         1 LIG       0.052367
     27 H11          2.1040    -2.4650    -0.6480 h1         1 LIG       0.052367
     28 H12          1.8710    -2.2130     1.1150 h1         1 LIG       0.052367
     29 H13          5.6530     1.4110    -0.0340 h1         1 LIG       0.048033
     30 H14          6.3590     0.1250    -1.0590 h1         1 LIG       0.048033
     31 H15          5.2750     1.3530    -1.7800 h1         1 LIG       0.048033
@<TRIPOS>BOND
     1     1     2 1   
     2     2     3 2   
     3     2     4 1   
     4     4     5 1   
     5     5     6 2   
     6     6     7 1   
     7     7     8 2   
     8     8     9 1   
     9     9    10 1   
    10     9    11 1   
    11     9    12 1   
    12     8    13 1   
    13     4    14 1   
    14     1    15 1   
    15    13     5 1   
    16     1    16 1   
    17    10    17 1   
    18    10    18 1   
    19    10    19 1   
    20    11    20 1   
    21    11    21 1   
    22    11    22 1   
    23    12    23 1   
    24    12    24 1   
    25    12    25 1   
    26    14    26 1   
    27    14    27 1   
    28    14    28 1   
    29    15    29 1   
    30    15    30 1   
    31    15    31 1   
@<TRIPOS>SUBSTRUCTURE
     1 LIG         1 TEMP              0 ****  ****    0 ROOT
