@<TRIPOS>MOLECULE
LIG
   45    46     1     0     0
SMALL
bcc


@<TRIPOS>ATOM
      1 O           -3.7560     4.0110    -0.7220 oh         1 LIG      -0.477100
      2 C           -2.9010     2.9540    -0.6620 ca         1 LIG       0.157100
      3 C1          -2.1340     2.8120     0.4860 ca         1 LIG      -0.178000
      4 C2          -1.2410     1.7460     0.5980 ca         1 LIG      -0.094000
      5 C3          -1.1230     0.7990    -0.4340 ca         1 LIG      -0.178300
      6 C4          -0.2020    -0.4230    -0.3280 c3         1 LIG      -0.048400
      7 C5           1.2920    -0.1200    -0.7250 c3         1 LIG       0.168800
      8 O1           1.2790     0.4160    -2.0580 oh         1 LIG      -0.573800
      9 C6           1.9790     0.9290     0.1750 c3         1 LIG      -0.091400
     10 C7           3.4440     1.1690    -0.2060 c3         1 LIG      -0.078900
     11 C8           4.2470    -0.1250    -0.2360 c3         1 LIG      -0.081400
     12 C9           3.5970    -1.1620    -1.1440 c3         1 LIG      -0.078900
     13 C10          2.1430    -1.4150    -0.7420 c3         1 LIG      -0.091400
     14 C11         -0.3560    -1.1380     1.0410 c3         1 LIG       0.111800
     15 N           -1.8180    -1.4330     1.3900 n4         1 LIG      -0.683400
     16 C12         -1.9920    -1.7100     2.8590 c3         1 LIG       0.083600
     17 C13         -2.4350    -2.5180     0.5540 c3         1 LIG       0.083600
     18 C14         -1.9000     0.9750    -1.5930 ca         1 LIG      -0.094000
     19 C15         -2.7870     2.0480    -1.7080 ca         1 LIG      -0.178000
     20 H           -4.1120     4.0860    -1.6240 ho         1 LIG       0.438000
     21 H1          -2.2180     3.5490     1.2820 ha         1 LIG       0.162000
     22 H2          -0.6330     1.6920     1.4980 ha         1 LIG       0.136000
     23 H3          -0.5620    -1.1350    -1.0860 hc         1 LIG       0.063700
     24 H4           1.3340    -0.2990    -2.7130 ho         1 LIG       0.408000
     25 H5           1.9360     0.6180     1.2250 hc         1 LIG       0.045200
     26 H6           1.4710     1.8960     0.0930 hc         1 LIG       0.045200
     27 H7           3.8960     1.8650     0.5100 hc         1 LIG       0.059950
     28 H8           3.4950     1.6540    -1.1890 hc         1 LIG       0.059950
     29 H9           5.2660     0.0810    -0.5800 hc         1 LIG       0.051200
     30 H10          4.3270    -0.5280     0.7810 hc         1 LIG       0.051200
     31 H11          4.1600    -2.1010    -1.0890 hc         1 LIG       0.059950
     32 H12          3.6470    -0.8250    -2.1860 hc         1 LIG       0.059950
     33 H13          2.1470    -1.8860     0.2470 hc         1 LIG       0.045200
     34 H14          1.7120    -2.1380    -1.4470 hc         1 LIG       0.045200
     35 H15          0.1580    -2.1030     1.0640 hx         1 LIG       0.102200
     36 H16          0.0370    -0.5180     1.8530 hx         1 LIG       0.102200
     37 H17         -2.3590    -0.5750     1.2000 hn         1 LIG       0.468800
     38 H18         -1.6250    -0.8430     3.4140 hx         1 LIG       0.103033
     39 H19         -1.4230    -2.6090     3.1120 hx         1 LIG       0.103033
     40 H20         -3.0580    -1.8510     3.0560 hx         1 LIG       0.103033
     41 H21         -1.8640    -3.4390     0.7010 hx         1 LIG       0.103033
     42 H22         -2.4180    -2.2070    -0.4920 hx         1 LIG       0.103033
     43 H23         -3.4720    -2.6480     0.8760 hx         1 LIG       0.103033
     44 H24         -1.8100     0.2880    -2.4330 ha         1 LIG       0.136000
     45 H25         -3.3710     2.1650    -2.6170 ha         1 LIG       0.162000
@<TRIPOS>BOND
     1     1     2 1   
     2     2     3 ar  
     3     3     4 ar  
     4     4     5 ar  
     5     5     6 1   
     6     6     7 1   
     7     7     8 1   
     8     7     9 1   
     9     9    10 1   
    10    10    11 1   
    11    11    12 1   
    12    12    13 1   
    13     6    14 1   
    14    14    15 1   
    15    15    16 1   
    16    15    17 1   
    17     5    18 ar  
    18    18    19 ar  
    19    19     2 ar  
    20    13     7 1   
    21     1    20 1   
    22     3    21 1   
    23     4    22 1   
    24     6    23 1   
    25     8    24 1   
    26     9    25 1   
    27     9    26 1   
    28    10    27 1   
    29    10    28 1   
    30    11    29 1   
    31    11    30 1   
    32    12    31 1   
    33    12    32 1   
    34    13    33 1   
    35    13    34 1   
    36    14    35 1   
    37    14    36 1   
    38    15    37 1   
    39    16    38 1   
    40    16    39 1   
    41    16    40 1   
    42    17    41 1   
    43    17    42 1   
    44    17    43 1   
    45    18    44 1   
    46    19    45 1   
@<TRIPOS>SUBSTRUCTURE
     1 LIG         1 TEMP              0 ****  ****    0 ROOT
