@<TRIPOS>MOLECULE
LIG
   24    24     1     0     0
SMALL
bcc


@<TRIPOS>ATOM
      1 C            2.9480    -1.2730     0.8760 ca         1 LIG      -0.095000
      2 C1           1.6010    -1.0750     0.5560 ca         1 LIG      -0.135000
      3 C2           1.2090     0.0160    -0.2230 ca         1 LIG       0.082600
      4 N           -0.1300     0.2860    -0.5700 n          1 LIG      -0.461100
      5 C3          -1.2070    -0.5660    -0.4650 c          1 LIG       0.763100
      6 O           -1.1220    -1.7630    -0.2040 o          1 LIG      -0.620100
      7 N1          -2.4380     0.0440    -0.7220 n          1 LIG      -0.460800
      8 C4          -2.7180     1.4480    -0.4490 c3         1 LIG       0.069300
      9 C5          -3.6040    -0.8240    -0.7520 c3         1 LIG       0.069300
     10 C6           2.1850     0.9200    -0.6620 ca         1 LIG      -0.179000
     11 C7           3.5340     0.7250    -0.3420 ca         1 LIG       0.044400
     12 Cl           4.6720     1.8860    -0.9300 cl         1 LIG      -0.072400
     13 C8           3.9190    -0.3760     0.4280 ca         1 LIG      -0.008600
     14 Cl1          5.5620    -0.6790     0.8610 cl         1 LIG      -0.070400
     15 H            3.2280    -2.1330     1.4810 ha         1 LIG       0.155000
     16 H1           0.8750    -1.7890     0.9370 ha         1 LIG       0.181000
     17 H2          -0.2850     1.0780    -1.1750 hn         1 LIG       0.314500
     18 H3          -3.2200     1.5180     0.5210 h1         1 LIG       0.046200
     19 H4          -1.8210     2.0670    -0.4060 h1         1 LIG       0.046200
     20 H5          -3.3800     1.8340    -1.2300 h1         1 LIG       0.046200
     21 H6          -3.9820    -0.9480     0.2680 h1         1 LIG       0.046200
     22 H7          -4.3770    -0.3720    -1.3820 h1         1 LIG       0.046200
     23 H8          -3.3520    -1.8070    -1.1610 h1         1 LIG       0.046200
     24 H9           1.9030     1.7830    -1.2600 ha         1 LIG       0.146000
@<TRIPOS>BOND
     1     1     2 ar  
     2     2     3 ar  
     3     3     4 1   
     4     4     5 1   
     5     5     6 2   
     6     5     7 1   
     7     7     8 1   
     8     7     9 1   
     9     3    10 ar  
    10    10    11 ar  
    11    11    12 1   
    12    11    13 ar  
    13    13    14 1   
    14    13     1 ar  
    15     1    15 1   
    16     2    16 1   
    17     4    17 1   
    18     8    18 1   
    19     8    19 1   
    20     8    20 1   
    21     9    21 1   
    22     9    22 1   
    23     9    23 1   
    24    10    24 1   
@<TRIPOS>SUBSTRUCTURE
     1 LIG         1 TEMP              0 ****  ****    0 ROOT
