@<TRIPOS>MOLECULE
LIG
   12    12     1     0     0
SMALL
bcc


@<TRIPOS>ATOM
      1 C           -1.4500     0.1560    -0.0490 ca         1 LIG      -0.117000
      2 C1          -0.6270     1.2830    -0.0650 ca         1 LIG      -0.130000
      3 C2           0.7600     1.1350    -0.0190 ca         1 LIG      -0.104000
      4 C3           1.3170    -0.1410     0.0440 ca         1 LIG      -0.026900
      5 Br           3.1950    -0.3430     0.1070 br         1 LIG      -0.091100
      6 C4           0.4990    -1.2710     0.0610 ca         1 LIG      -0.104000
      7 C5          -0.8880    -1.1200     0.0140 ca         1 LIG      -0.130000
      8 H           -2.5310     0.2720    -0.0850 ha         1 LIG       0.136000
      9 H1          -1.0670     2.2760    -0.1140 ha         1 LIG       0.137000
     10 H2           1.3940     2.0170    -0.0320 ha         1 LIG       0.146000
     11 H3           0.9290    -2.2670     0.1100 ha         1 LIG       0.146000
     12 H4          -1.5300    -1.9970     0.0270 ha         1 LIG       0.137000
@<TRIPOS>BOND
     1     1     2 ar  
     2     2     3 ar  
     3     3     4 ar  
     4     4     5 1   
     5     4     6 ar  
     6     6     7 ar  
     7     7     1 ar  
     8     1     8 1   
     9     2     9 1   
    10     3    10 1   
    11     6    11 1   
    12     7    12 1   
@<TRIPOS>SUBSTRUCTURE
     1 LIG         1 TEMP              0 ****  ****    0 ROOT
