@<TRIPOS>MOLECULE
LIG
   12    12     1     0     0
SMALL
bcc


@<TRIPOS>ATOM
      1 C            0.1230    -1.3930     0.0190 ca         1 LIG      -0.122000
      2 C1          -1.1370    -0.7970    -0.0050 ca         1 LIG       0.031400
      3 Cl          -2.5460    -1.7850    -0.0120 cl         1 LIG      -0.075400
      4 C2          -1.2680     0.5900    -0.0250 ca         1 LIG      -0.122000
      5 C3          -0.1220     1.3830    -0.0190 ca         1 LIG       0.031400
      6 Cl1         -0.2730     3.0970    -0.0430 cl         1 LIG      -0.075400
      7 C4           1.1450     0.8030     0.0050 ca         1 LIG      -0.122000
      8 C5           1.2580    -0.5860     0.0240 ca         1 LIG       0.031400
      9 Cl2          2.8180    -1.3120     0.0540 cl         1 LIG      -0.075400
     10 H            0.2180    -2.4750     0.0340 ha         1 LIG       0.166000
     11 H1          -2.2530     1.0490    -0.0440 ha         1 LIG       0.166000
     12 H2           2.0350     1.4270     0.0090 ha         1 LIG       0.166000
@<TRIPOS>BOND
     1     1     2 ar  
     2     2     3 1   
     3     2     4 ar  
     4     4     5 ar  
     5     5     6 1   
     6     5     7 ar  
     7     7     8 ar  
     8     8     9 1   
     9     8     1 ar  
    10     1    10 1   
    11     4    11 1   
    12     7    12 1   
@<TRIPOS>SUBSTRUCTURE
     1 LIG         1 TEMP              0 ****  ****    0 ROOT
