@<TRIPOS>MOLECULE
LIG
   12    12     1     0     0
SMALL
bcc


@<TRIPOS>ATOM
      1 O           -0.2130    -2.7850     0.1290 o          1 LIG      -0.698700
      2 C           -0.1160    -1.5070     0.0700 ca         1 LIG       0.591700
      3 C1          -1.2580    -0.6450     0.0430 ca         1 LIG      -0.165600
      4 Cl          -2.8680    -1.3620     0.0920 cl         1 LIG      -0.128400
      5 C2          -1.1570     0.7630    -0.0230 ca         1 LIG       0.122400
      6 Cl1         -2.5960     1.7560    -0.0530 cl         1 LIG      -0.131400
      7 C3           0.1050     1.3690    -0.0640 ca         1 LIG      -0.157600
      8 Cl2          0.2380     3.1100    -0.1440 cl         1 LIG      -0.128400
      9 C4           1.2590     0.5770    -0.0400 ca         1 LIG       0.122400
     10 Cl3          2.8330     1.3380    -0.0910 cl         1 LIG      -0.131400
     11 C5           1.1450    -0.8300     0.0260 ca         1 LIG      -0.165600
     12 Cl4          2.6270    -1.7850     0.0540 cl         1 LIG      -0.128400
@<TRIPOS>BOND
     1     1     2 1   
     2     2     3 ar  
     3     3     4 1   
     4     3     5 ar  
     5     5     6 1   
     6     5     7 ar  
     7     7     8 1   
     8     7     9 ar  
     9     9    10 1   
    10     9    11 ar  
    11    11    12 1   
    12    11     2 ar  
@<TRIPOS>SUBSTRUCTURE
     1 LIG         1 TEMP              0 ****  ****    0 ROOT
