@<TRIPOS>MOLECULE
LIG
    8     7     1     0     0
SMALL
bcc


@<TRIPOS>ATOM
      1 C           -0.6820    -0.2630    -0.2600 c3         1 LIG       0.122100
      2 Cl          -1.6890     1.0510    -0.9450 cl         1 LIG      -0.117900
      3 Cl1         -1.5370    -0.9840     1.1360 cl         1 LIG      -0.117900
      4 C1           0.7390     0.2260     0.0640 c3         1 LIG       0.122100
      5 Cl2          1.8190    -1.1350     0.5010 cl         1 LIG      -0.117900
      6 Cl3          0.8050     1.4590     1.3580 cl         1 LIG      -0.117900
      7 H           -0.6390    -1.0380    -1.0310 h2         1 LIG       0.113700
      8 H1           1.1840     0.6850    -0.8240 h2         1 LIG       0.113700
@<TRIPOS>BOND
     1     1     2 1   
     2     1     3 1   
     3     1     4 1   
     4     4     5 1   
     5     4     6 1   
     6     1     7 1   
     7     4     8 1   
@<TRIPOS>SUBSTRUCTURE
     1 LIG         1 TEMP              0 ****  ****    0 ROOT
