@<TRIPOS>MOLECULE
LIG
   15    15     1     0     0
SMALL
bcc


@<TRIPOS>ATOM
      1 C            1.5160     0.8610    -0.4770 ca         1 LIG      -0.120000
      2 C1           0.1910     0.7730    -0.9100 ca         1 LIG      -0.123000
      3 C2          -0.7280    -0.0320    -0.2250 ca         1 LIG      -0.074300
      4 C3          -2.1430    -0.1520    -0.7100 c3         1 LIG      -0.055800
      5 C4          -0.2960    -0.7680     0.8860 ca         1 LIG      -0.123000
      6 C5           1.0290    -0.6820     1.3200 ca         1 LIG      -0.120000
      7 C6           1.9290     0.1340     0.6380 ca         1 LIG       0.011400
      8 Cl           3.5610     0.2410     1.1710 cl         1 LIG      -0.098400
      9 H            2.2180     1.4930    -1.0140 ha         1 LIG       0.146000
     10 H1          -0.1200     1.3390    -1.7860 ha         1 LIG       0.136000
     11 H2          -2.8260    -0.3480     0.1220 hc         1 LIG       0.046367
     12 H3          -2.4710     0.7770    -1.1880 hc         1 LIG       0.046367
     13 H4          -2.2220    -0.9690    -1.4330 hc         1 LIG       0.046367
     14 H5          -0.9890    -1.4140     1.4210 ha         1 LIG       0.136000
     15 H6           1.3520    -1.2530     2.1860 ha         1 LIG       0.146000
@<TRIPOS>BOND
     1     1     2 ar  
     2     2     3 ar  
     3     3     4 1   
     4     3     5 ar  
     5     5     6 ar  
     6     6     7 ar  
     7     7     8 1   
     8     7     1 ar  
     9     1     9 1   
    10     2    10 1   
    11     4    11 1   
    12     4    12 1   
    13     4    13 1   
    14     5    14 1   
    15     6    15 1   
@<TRIPOS>SUBSTRUCTURE
     1 LIG         1 TEMP              0 ****  ****    0 ROOT
