@<TRIPOS>MOLECULE
LIG
    6     5     1     0     0
SMALL
bcc


@<TRIPOS>ATOM
      1 C            0.6640    -0.1690    -0.4000 c2         1 LIG      -0.073600
      2 Cl           1.6750     1.1970    -0.6140 cl         1 LIG      -0.086400
      3 C1          -0.6670    -0.1500    -0.3720 c2         1 LIG      -0.073600
      4 Cl1         -1.6480     1.2430    -0.5440 cl         1 LIG      -0.086400
      5 H            1.2390    -1.0780    -0.2860 h4         1 LIG       0.161000
      6 H1          -1.2630    -1.0430    -0.2330 h4         1 LIG       0.161000
@<TRIPOS>BOND
     1     1     2 1   
     2     1     3 2   
     3     3     4 1   
     4     1     5 1   
     5     3     6 1   
@<TRIPOS>SUBSTRUCTURE
     1 LIG         1 TEMP              0 ****  ****    0 ROOT
