@<TRIPOS>MOLECULE
LIG
    7     6     1     0     0
SMALL
bcc


@<TRIPOS>ATOM
      1 O            1.3950    -1.1940    -0.4540 o          1 LIG      -0.149000
      2 N            0.9440    -0.1110    -0.0380 no         1 LIG       0.238300
      3 O1           1.6640     0.7920     0.4230 o          1 LIG      -0.149000
      4 C           -0.5770     0.0930    -0.0330 c3         1 LIG       0.140900
      5 Cl          -1.2930    -0.8210    -1.3700 cl         1 LIG      -0.031400
      6 Cl1         -0.9350     1.8180    -0.2050 cl         1 LIG      -0.031400
      7 Br          -1.1980    -0.5780     1.6760 br         1 LIG      -0.018400
@<TRIPOS>BOND
     1     1     2 1   
     2     2     3 1   
     3     2     4 1   
     4     4     5 1   
     5     4     6 1   
     6     4     7 1   
@<TRIPOS>SUBSTRUCTURE
     1 LIG         1 TEMP              0 ****  ****    0 ROOT
