@<TRIPOS>MOLECULE
LIG
   13    13     1     0     0
SMALL
bcc


@<TRIPOS>ATOM
      1 N            2.3370    -0.7870     0.2360 nh         1 LIG      -0.947500
      2 C            1.1090    -0.1600     0.2050 ca         1 LIG       0.938900
      3 N1           1.0410     1.0670     0.6760 nb         1 LIG      -0.811000
      4 C1          -0.1780     1.5810     0.6070 ca         1 LIG       0.809000
      5 Cl          -0.3570     3.1680     1.2170 cl         1 LIG      -0.113000
      6 N2          -1.2760     1.0180     0.1240 nb         1 LIG      -0.811000
      7 C2          -1.0690    -0.1960    -0.3420 ca         1 LIG       0.938900
      8 N3          -2.1500    -0.8680    -0.8710 nh         1 LIG      -0.947500
      9 N4           0.0940    -0.8320    -0.3190 nb         1 LIG      -0.852000
     10 H            2.3920    -1.5080    -0.4710 hn         1 LIG       0.448300
     11 H1           3.0890    -0.1130     0.2700 hn         1 LIG       0.448300
     12 H2          -2.0110    -1.8680    -0.8250 hn         1 LIG       0.448300
     13 H3          -3.0190    -0.5030    -0.5070 hn         1 LIG       0.448300
@<TRIPOS>BOND
     1     1     2 1   
     2     2     3 ar  
     3     3     4 ar  
     4     4     5 1   
     5     4     6 ar  
     6     6     7 ar  
     7     7     8 1   
     8     7     9 ar  
     9     9     2 ar  
    10     1    10 1   
    11     1    11 1   
    12     8    12 1   
    13     8    13 1   
@<TRIPOS>SUBSTRUCTURE
     1 LIG         1 TEMP              0 ****  ****    0 ROOT
