@<TRIPOS>MOLECULE
LIG
    7     6     1     0     0
SMALL
bcc


@<TRIPOS>ATOM
      1 O            1.3650    -0.9040    -1.0800 o          1 LIG      -0.761800
      2 C            0.9860    -0.0500    -0.2190 c          1 LIG       0.949600
      3 O1           1.7310     0.7690     0.4100 o          1 LIG      -0.761800
      4 C1          -0.5500     0.0160     0.1110 c3         1 LIG       0.191200
      5 Cl          -1.1880     1.6610    -0.2610 cl         1 LIG      -0.206067
      6 Cl1         -0.8140    -0.3220     1.8630 cl         1 LIG      -0.206067
      7 Cl2         -1.5300    -1.1710    -0.8250 cl         1 LIG      -0.206067
@<TRIPOS>BOND
     1     1     2 1   
     2     2     3 1   
     3     2     4 1   
     4     4     5 1   
     5     4     6 1   
     6     4     7 1   
@<TRIPOS>SUBSTRUCTURE
     1 LIG         1 TEMP              0 ****  ****    0 ROOT
