@<TRIPOS>MOLECULE
LIG
   25    24     1     0     0
SMALL
bcc


@<TRIPOS>ATOM
      1 O           -4.6840    -1.2220    -0.2180 o          1 LIG      -0.748300
      2 C           -4.6390     0.0250     0.0030 c          1 LIG       0.949600
      3 O1          -5.6290     0.8040     0.1700 o          1 LIG      -0.748300
      4 C1          -3.2450     0.6770     0.0820 c3         1 LIG       0.228600
      5 F           -3.1820     1.6800    -0.8510 f          1 LIG      -0.240300
      6 F1          -3.1230     1.2970     1.2980 f          1 LIG      -0.240300
      7 C2          -2.1040    -0.2890    -0.1220 c3         1 LIG       0.373600
      8 F2          -2.1670    -0.8950    -1.3420 f          1 LIG      -0.195800
      9 F3          -2.1080    -1.2800     0.8140 f          1 LIG      -0.195800
     10 C3          -0.7760     0.4450    -0.0280 c3         1 LIG       0.321600
     11 F4          -0.6980     1.4390    -0.9580 f          1 LIG      -0.196300
     12 F5          -0.6400     1.0570     1.1830 f          1 LIG      -0.196300
     13 C4           0.3900    -0.5100    -0.2300 c3         1 LIG       0.344600
     14 F6           0.3670    -1.5060     0.6980 f          1 LIG      -0.186300
     15 F7           0.3080    -1.1240    -1.4430 f          1 LIG      -0.186300
     16 C5           1.7160     0.2260    -0.1350 c3         1 LIG       0.340600
     17 F8           1.8350     0.8390     1.0750 f          1 LIG      -0.184300
     18 F9           1.7770     1.2210    -1.0630 f          1 LIG      -0.184300
     19 C6           2.8760    -0.7230    -0.3370 c3         1 LIG       0.345600
     20 F10          2.7980    -1.3390    -1.5500 f          1 LIG      -0.182300
     21 F11          2.8570    -1.7220     0.5920 f          1 LIG      -0.182300
     22 C7           4.1810     0.0420    -0.2360 c3         1 LIG       0.594900
     23 F12          4.3510     0.6300     0.9710 f          1 LIG      -0.211300
     24 F13          4.2920     1.0130    -1.1730 f          1 LIG      -0.211300
     25 F14          5.2460    -0.7840    -0.4130 f          1 LIG      -0.211300
@<TRIPOS>BOND
     1     1     2 1   
     2     2     3 1   
     3     2     4 1   
     4     4     5 1   
     5     4     6 1   
     6     4     7 1   
     7     7     8 1   
     8     7     9 1   
     9     7    10 1   
    10    10    11 1   
    11    10    12 1   
    12    10    13 1   
    13    13    14 1   
    14    13    15 1   
    15    13    16 1   
    16    16    17 1   
    17    16    18 1   
    18    16    19 1   
    19    19    20 1   
    20    19    21 1   
    21    19    22 1   
    22    22    23 1   
    23    22    24 1   
    24    22    25 1   
@<TRIPOS>SUBSTRUCTURE
     1 LIG         1 TEMP              0 ****  ****    0 ROOT
