@<TRIPOS>MOLECULE
LIG
   29    30     1     0     0
SMALL
bcc


@<TRIPOS>ATOM
      1 C           -2.3100     0.2020     0.8190 cc         1 LIG       0.311500
      2 N           -1.0350     0.2420     1.0100 nd         1 LIG      -0.392300
      3 N1          -0.2000    -0.0950    -0.0360 n          1 LIG      -0.131000
      4 C1           1.2030    -0.0000     0.3000 ca         1 LIG       0.055600
      5 C2           1.5910     0.3700     1.6030 ca         1 LIG      -0.092000
      6 C3           2.9340     0.4750     1.9770 ca         1 LIG      -0.132000
      7 C4           3.9360     0.2120     1.0500 ca         1 LIG      -0.082000
      8 C5           3.5980    -0.1520    -0.2570 ca         1 LIG      -0.161300
      9 C6           4.6650    -0.4500    -1.2820 c3         1 LIG       0.689200
     10 F            5.9250    -0.1460    -0.8560 f          1 LIG      -0.235633
     11 F1           4.7000    -1.7650    -1.6320 f          1 LIG      -0.235633
     12 F2           4.4920     0.2450    -2.4410 f          1 LIG      -0.235633
     13 C7           2.2360    -0.2570    -0.6150 ca         1 LIG      -0.061000
     14 C8          -0.6950    -0.5000    -1.2870 c          1 LIG       0.709700
     15 O           -0.0170    -0.8400    -2.2570 o          1 LIG      -0.590500
     16 C9          -2.1860    -0.5060    -1.4190 cd         1 LIG      -0.216800
     17 Cl          -2.8310    -0.9740    -2.9660 cl         1 LIG      -0.059400
     18 C10         -3.0180    -0.1620    -0.4260 cc         1 LIG       0.145400
     19 N2          -4.4080    -0.1410    -0.4750 nh         1 LIG      -0.759000
     20 C11         -5.2930     0.5970     0.3990 c3         1 LIG       0.200100
     21 H           -2.9490     0.4660     1.6750 h4         1 LIG       0.054800
     22 H1           0.8430     0.5840     2.3650 ha         1 LIG       0.152000
     23 H2           3.1920     0.7600     2.9940 ha         1 LIG       0.145000
     24 H3           4.9790     0.2940     1.3510 ha         1 LIG       0.154000
     25 H4           2.0290    -0.5420    -1.6430 ha         1 LIG       0.176000
     26 H5          -4.7700    -0.2810    -1.4210 hn         1 LIG       0.451800
     27 H6          -6.3280     0.4650     0.0710 h1         1 LIG       0.046700
     28 H7          -5.0600     1.6660     0.3750 h1         1 LIG       0.046700
     29 H8          -5.2220     0.2330     1.4290 h1         1 LIG       0.046700
@<TRIPOS>BOND
     1     1     2 2   
     2     2     3 1   
     3     3     4 1   
     4     4     5 ar  
     5     5     6 ar  
     6     6     7 ar  
     7     7     8 ar  
     8     8     9 1   
     9     9    10 1   
    10     9    11 1   
    11     9    12 1   
    12     8    13 ar  
    13     3    14 1   
    14    14    15 2   
    15    14    16 1   
    16    16    17 1   
    17    16    18 2   
    18    18    19 1   
    19    19    20 1   
    20    18     1 1   
    21    13     4 ar  
    22     1    21 1   
    23     5    22 1   
    24     6    23 1   
    25     7    24 1   
    26    13    25 1   
    27    19    26 1   
    28    20    27 1   
    29    20    28 1   
    30    20    29 1   
@<TRIPOS>SUBSTRUCTURE
     1 LIG         1 TEMP              0 ****  ****    0 ROOT
