@<TRIPOS>MOLECULE
LIG
    5     4     1     0     0
SMALL
bcc


@<TRIPOS>ATOM
      1 C            0.0190    -0.0500     0.1270 c3         1 LIG       0.176500
      2 Cl          -1.0500    -1.3080    -0.4980 cl         1 LIG      -0.103400
      3 Cl1          1.6640    -0.2400    -0.4860 cl         1 LIG      -0.103400
      4 Br          -0.6670     1.6980    -0.3600 br         1 LIG      -0.090400
      5 H            0.0340    -0.1000     1.2180 h3         1 LIG       0.120700
@<TRIPOS>BOND
     1     1     2 1   
     2     1     3 1   
     3     1     4 1   
     4     1     5 1   
@<TRIPOS>SUBSTRUCTURE
     1 LIG         1 TEMP              0 ****  ****    0 ROOT
