@<TRIPOS>MOLECULE
LIG
    5     4     1     0     0
SMALL
bcc


@<TRIPOS>ATOM
      1 C            0.0010     0.0010     0.1160 c3         1 LIG       0.223500
      2 Cl          -0.6960     1.5300    -0.4450 cl         1 LIG      -0.114400
      3 Cl1          1.6700    -0.1690    -0.4530 cl         1 LIG      -0.114400
      4 Cl2         -0.9840    -1.3690    -0.4270 cl         1 LIG      -0.114400
      5 H            0.0090     0.0070     1.2090 h3         1 LIG       0.118700
@<TRIPOS>BOND
     1     1     2 1   
     2     1     3 1   
     3     1     4 1   
     4     1     5 1   
@<TRIPOS>SUBSTRUCTURE
     1 LIG         1 TEMP              0 ****  ****    0 ROOT
