@<TRIPOS>MOLECULE
LIG
    9     8     1     0     0
SMALL
bcc


@<TRIPOS>ATOM
      1 C            1.3040     0.3500    -0.1480 c2         1 LIG      -0.050600
      2 Cl           2.9020    -0.0360     0.3340 cl         1 LIG      -0.103400
      3 C1           0.2450    -0.3760     0.2240 c2         1 LIG      -0.183200
      4 C2          -1.1560    -0.0710    -0.1880 c3         1 LIG       0.070200
      5 Cl1         -2.1340     0.2890     1.2480 cl         1 LIG      -0.182400
      6 H            1.2640     1.2340    -0.7720 h4         1 LIG       0.152000
      7 H1           0.3880    -1.2490     0.8560 ha         1 LIG       0.153000
      8 H2          -1.2140     0.7920    -0.8590 h1         1 LIG       0.072700
      9 H3          -1.5980    -0.9340    -0.6940 h1         1 LIG       0.072700
@<TRIPOS>BOND
     1     1     2 1   
     2     1     3 2   
     3     3     4 1   
     4     4     5 1   
     5     1     6 1   
     6     3     7 1   
     7     4     8 1   
     8     4     9 1   
@<TRIPOS>SUBSTRUCTURE
     1 LIG         1 TEMP              0 ****  ****    0 ROOT
