@<TRIPOS>MOLECULE
LIG
   29    28     1     0     0
SMALL
bcc


@<TRIPOS>ATOM
      1 C           -3.9320     0.0320    -1.3330 c3         1 LIG      -0.093100
      2 C1          -2.7870    -0.7280    -0.6830 c3         1 LIG      -0.079900
      3 C2          -1.8260     0.2180     0.0410 c3         1 LIG      -0.097400
      4 C3          -0.6690    -0.5610     0.6890 c3         1 LIG       0.202300
      5 N            0.2930     0.2510     1.4640 nh         1 LIG      -0.558700
      6 N1          -0.1730     0.7480     2.5910 n2         1 LIG       0.148600
      7 O           -0.5130    -0.1450     3.3740 o          1 LIG      -0.259300
      8 C4           1.0050     1.2650     0.6680 c3         1 LIG       0.202300
      9 C5           1.8250     0.7200    -0.5130 c3         1 LIG      -0.097400
     10 C6           2.8940    -0.2880    -0.0860 c3         1 LIG      -0.079900
     11 C7           3.7250    -0.7510    -1.2720 c3         1 LIG      -0.093100
     12 H           -4.5130     0.5810    -0.5850 hc         1 LIG       0.034367
     13 H1          -4.6060    -0.6630    -1.8440 hc         1 LIG       0.034367
     14 H2          -3.5590     0.7480    -2.0720 hc         1 LIG       0.034367
     15 H3          -3.1960    -1.4570     0.0250 hc         1 LIG       0.043200
     16 H4          -2.2450    -1.2900    -1.4530 hc         1 LIG       0.043200
     17 H5          -1.4360     0.9460    -0.6800 hc         1 LIG       0.048700
     18 H6          -2.3780     0.7780     0.8050 hc         1 LIG       0.048700
     19 H7          -0.1290    -1.1150    -0.0890 h1         1 LIG       0.058200
     20 H8          -1.0870    -1.3520     1.3290 h1         1 LIG       0.058200
     21 H9           0.3100     2.0290     0.2930 h1         1 LIG       0.058200
     22 H10          1.7120     1.8000     1.3190 h1         1 LIG       0.058200
     23 H11          2.3150     1.5710    -1.0040 hc         1 LIG       0.048700
     24 H12          1.1660     0.2750    -1.2670 hc         1 LIG       0.048700
     25 H13          2.4290    -1.1640     0.3810 hc         1 LIG       0.043200
     26 H14          3.5550     0.1660     0.6610 hc         1 LIG       0.043200
     27 H15          4.2380     0.0930    -1.7450 hc         1 LIG       0.034367
     28 H16          4.4840    -1.4700    -0.9460 hc         1 LIG       0.034367
     29 H17          3.0970    -1.2370    -2.0250 hc         1 LIG       0.034367
@<TRIPOS>BOND
     1     1     2 1   
     2     2     3 1   
     3     3     4 1   
     4     4     5 1   
     5     5     6 1   
     6     6     7 2   
     7     5     8 1   
     8     8     9 1   
     9     9    10 1   
    10    10    11 1   
    11     1    12 1   
    12     1    13 1   
    13     1    14 1   
    14     2    15 1   
    15     2    16 1   
    16     3    17 1   
    17     3    18 1   
    18     4    19 1   
    19     4    20 1   
    20     8    21 1   
    21     8    22 1   
    22     9    23 1   
    23     9    24 1   
    24    10    25 1   
    25    10    26 1   
    26    11    27 1   
    27    11    28 1   
    28    11    29 1   
@<TRIPOS>SUBSTRUCTURE
     1 LIG         1 TEMP              0 ****  ****    0 ROOT
