@<TRIPOS>MOLECULE
LIG
   29    29     1     0     0
SMALL
bcc


@<TRIPOS>ATOM
      1 N            2.9480    -0.4840     0.3680 nh         1 LIG      -0.817200
      2 C            1.7220    -0.9020    -0.0610 cc         1 LIG       0.911200
      3 N1           0.7290     0.0150    -0.2350 nc         1 LIG      -0.850000
      4 C1          -0.4250    -0.4060    -0.6220 cd         1 LIG       0.721800
      5 N2          -1.4370     0.4890    -0.8100 nh         1 LIG      -0.804200
      6 C2          -2.8530     0.2300    -0.6020 c3         1 LIG       0.198500
      7 C3          -3.1520     0.1260     0.8910 c3         1 LIG      -0.118100
      8 C4          -3.6580     1.3630    -1.2340 c3         1 LIG      -0.118100
      9 N3          -0.6380    -1.7160    -0.8500 n          1 LIG      -0.530400
     10 C5           0.3660    -2.6150    -0.7140 c          1 LIG       0.841900
     11 O            0.1510    -3.7930    -0.9900 o          1 LIG      -0.620500
     12 N4           1.5690    -2.1670    -0.2730 nd         1 LIG      -0.761100
     13 C6           3.1520     0.7640     1.0670 c3         1 LIG       0.224800
     14 C7           4.6360     0.9850     1.3070 c3         1 LIG      -0.115100
     15 H            3.5290    -1.2630     0.6580 hn         1 LIG       0.455800
     16 H1          -1.1440     1.4210    -0.5240 hn         1 LIG       0.435800
     17 H2          -3.1460    -0.7030    -1.0950 h1         1 LIG       0.060700
     18 H3          -4.2190    -0.0470     1.0640 hc         1 LIG       0.050367
     19 H4          -2.8650     1.0420     1.4210 hc         1 LIG       0.050367
     20 H5          -2.6000    -0.7040     1.3460 hc         1 LIG       0.050367
     21 H6          -3.4150     2.3300    -0.7790 hc         1 LIG       0.050367
     22 H7          -3.4440     1.4400    -2.3060 hc         1 LIG       0.050367
     23 H8          -4.7330     1.1920    -1.1150 hc         1 LIG       0.050367
     24 H9          -1.5010    -2.0670    -1.2230 hn         1 LIG       0.338500
     25 H10          2.6240     0.7440     2.0260 h1         1 LIG       0.051700
     26 H11          2.7580     1.6010     0.4790 h1         1 LIG       0.051700
     27 H12          5.0600     0.1800     1.9160 hc         1 LIG       0.046700
     28 H13          4.8010     1.9320     1.8290 hc         1 LIG       0.046700
     29 H14          5.1860     1.0140     0.3610 hc         1 LIG       0.046700
@<TRIPOS>BOND
     1     1     2 1   
     2     2     3 1   
     3     3     4 2   
     4     4     5 1   
     5     5     6 1   
     6     6     7 1   
     7     6     8 1   
     8     4     9 1   
     9     9    10 1   
    10    10    11 2   
    11    10    12 1   
    12     1    13 1   
    13    13    14 1   
    14    12     2 2   
    15     1    15 1   
    16     5    16 1   
    17     6    17 1   
    18     7    18 1   
    19     7    19 1   
    20     7    20 1   
    21     8    21 1   
    22     8    22 1   
    23     8    23 1   
    24     9    24 1   
    25    13    25 1   
    26    13    26 1   
    27    14    27 1   
    28    14    28 1   
    29    14    29 1   
@<TRIPOS>SUBSTRUCTURE
     1 LIG         1 TEMP              0 ****  ****    0 ROOT
