@<TRIPOS>MOLECULE
LIG
   16    16     1     0     0
SMALL
bcc


@<TRIPOS>ATOM
      1 C            2.8620    -0.2620    -0.1350 c2         1 LIG      -0.209000
      2 C1           1.8400     0.4950     0.2860 ce         1 LIG      -0.113200
      3 C2           0.4040     0.2080     0.1190 ca         1 LIG      -0.057800
      4 C3          -0.0880    -0.9340    -0.5270 ca         1 LIG      -0.118500
      5 C4          -1.4640    -1.1500    -0.6540 ca         1 LIG      -0.131000
      6 C5          -2.3690    -0.2260    -0.1380 ca         1 LIG      -0.127000
      7 C6          -1.8980     0.9140     0.5060 ca         1 LIG      -0.131000
      8 C7          -0.5230     1.1280     0.6330 ca         1 LIG      -0.118500
      9 H            3.8850     0.0560     0.0490 ha         1 LIG       0.113500
     10 H1           2.7340    -1.1990    -0.6620 ha         1 LIG       0.113500
     11 H2           2.0790     1.4200     0.8080 ha         1 LIG       0.123000
     12 H3           0.5850    -1.6780    -0.9430 ha         1 LIG       0.131500
     13 H4          -1.8270    -2.0420    -1.1580 ha         1 LIG       0.131000
     14 H5          -3.4380    -0.3950    -0.2370 ha         1 LIG       0.131000
     15 H6          -2.5990     1.6390     0.9120 ha         1 LIG       0.131000
     16 H7          -0.1830     2.0280     1.1410 ha         1 LIG       0.131500
@<TRIPOS>BOND
     1     1     2 2   
     2     2     3 1   
     3     3     4 ar  
     4     4     5 ar  
     5     5     6 ar  
     6     6     7 ar  
     7     7     8 ar  
     8     8     3 ar  
     9     1     9 1   
    10     1    10 1   
    11     2    11 1   
    12     4    12 1   
    13     5    13 1   
    14     6    14 1   
    15     7    15 1   
    16     8    16 1   
@<TRIPOS>SUBSTRUCTURE
     1 LIG         1 TEMP              0 ****  ****    0 ROOT
