@<TRIPOS>MOLECULE
LIG
   36    35     1     0     0
SMALL
bcc


@<TRIPOS>ATOM
      1 C            0.9210    -0.8590     0.1310 c3         1 LIG       0.180800
      2 S            2.4790    -1.1750    -0.7490 ss         1 LIG      -0.072200
      3 C1           3.7450    -0.4570     0.3950 c3         1 LIG       0.006100
      4 C2           5.0840    -0.5180    -0.3590 c3         1 LIG      -0.090767
      5 C3           3.4410     1.0030     0.7490 c3         1 LIG      -0.090767
      6 C4           3.8500    -1.3110     1.6650 c3         1 LIG      -0.090767
      7 S1           0.0820     0.5870    -0.5450 ss         1 LIG      -0.480500
      8 P           -1.7060     0.5980     0.5610 p5         1 LIG       0.786200
      9 S2          -1.5640     0.8740     2.4860 s          1 LIG      -0.509000
     10 O           -2.4740    -0.7830     0.1750 os         1 LIG      -0.485700
     11 C5          -3.7580    -1.0440     0.7220 c3         1 LIG       0.150900
     12 C6          -4.4770    -2.0190    -0.1890 c3         1 LIG      -0.121600
     13 O1          -2.7000     1.6880    -0.1220 os         1 LIG      -0.485700
     14 C7          -3.0460     1.5790    -1.4930 c3         1 LIG       0.150900
     15 C8          -2.7520     2.8980    -2.1780 c3         1 LIG      -0.121600
     16 H            0.2760    -1.7280    -0.0230 h2         1 LIG       0.113700
     17 H1           1.0720    -0.7490     1.2060 h2         1 LIG       0.113700
     18 H2           5.0600     0.0790    -1.2790 hc         1 LIG       0.050256
     19 H3           5.8980    -0.1210     0.2600 hc         1 LIG       0.050256
     20 H4           5.3560    -1.5460    -0.6270 hc         1 LIG       0.050256
     21 H5           2.5440     1.1010     1.3680 hc         1 LIG       0.050256
     22 H6           3.3130     1.6190    -0.1480 hc         1 LIG       0.050256
     23 H7           4.2660     1.4390     1.3250 hc         1 LIG       0.050256
     24 H8           2.9360    -1.2800     2.2660 hc         1 LIG       0.050256
     25 H9           4.6620    -0.9480     2.3070 hc         1 LIG       0.050256
     26 H10          4.0670    -2.3600     1.4320 hc         1 LIG       0.050256
     27 H11         -3.6380    -1.4830     1.7160 h1         1 LIG       0.068450
     28 H12         -4.3380    -0.1200     0.8080 h1         1 LIG       0.068450
     29 H13         -4.5850    -1.5980    -1.1940 hc         1 LIG       0.053033
     30 H14         -5.4700    -2.2580     0.2020 hc         1 LIG       0.053033
     31 H15         -3.9040    -2.9460    -0.2910 hc         1 LIG       0.053033
     32 H16         -2.5050     0.7660    -1.9850 h1         1 LIG       0.068450
     33 H17         -4.1150     1.3550    -1.5540 h1         1 LIG       0.068450
     34 H18         -1.6880     3.1450    -2.1030 hc         1 LIG       0.053033
     35 H19         -3.3030     3.7130    -1.6980 hc         1 LIG       0.053033
     36 H20         -3.0310     2.8590    -3.2350 hc         1 LIG       0.053033
@<TRIPOS>BOND
     1     1     2 1   
     2     2     3 1   
     3     3     4 1   
     4     3     5 1   
     5     3     6 1   
     6     1     7 1   
     7     7     8 1   
     8     8     9 2   
     9     8    10 1   
    10    10    11 1   
    11    11    12 1   
    12     8    13 1   
    13    13    14 1   
    14    14    15 1   
    15     1    16 1   
    16     1    17 1   
    17     4    18 1   
    18     4    19 1   
    19     4    20 1   
    20     5    21 1   
    21     5    22 1   
    22     5    23 1   
    23     6    24 1   
    24     6    25 1   
    25     6    26 1   
    26    11    27 1   
    27    11    28 1   
    28    12    29 1   
    29    12    30 1   
    30    12    31 1   
    31    14    32 1   
    32    14    33 1   
    33    15    34 1   
    34    15    35 1   
    35    15    36 1   
@<TRIPOS>SUBSTRUCTURE
     1 LIG         1 TEMP              0 ****  ****    0 ROOT
