@<TRIPOS>MOLECULE
LIG
   21    21     1     0     0
SMALL
bcc


@<TRIPOS>ATOM
      1 C           -1.0850    -1.7560    -1.0890 ca         1 LIG      -0.098000
      2 C1           0.1020    -1.1210    -0.7080 ca         1 LIG      -0.188000
      3 C2           0.0700     0.1210    -0.0690 ca         1 LIG       0.160100
      4 O            1.1700     0.8240     0.3440 os         1 LIG      -0.321900
      5 C3           2.4730     0.3790    -0.0810 c3         1 LIG      -0.000600
      6 C4           3.0420    -0.7240     0.8330 c          1 LIG       0.896600
      7 O1           3.2780    -0.3900     2.0300 o          1 LIG      -0.826300
      8 O2           3.2570    -1.8330     0.2570 o          1 LIG      -0.826300
      9 C5          -1.1730     0.7280     0.2030 ca         1 LIG      -0.128300
     10 C6          -1.2340     2.0530     0.9110 c3         1 LIG      -0.032800
     11 C7          -2.3590     0.0850    -0.1850 ca         1 LIG      -0.110000
     12 C8          -2.3080    -1.1490    -0.8290 ca         1 LIG      -0.036600
     13 Cl          -3.7700    -1.9280    -1.3010 cl         1 LIG      -0.152400
     14 H           -1.0340    -2.7250    -1.5750 ha         1 LIG       0.136000
     15 H1           1.0380    -1.6350    -0.9050 ha         1 LIG       0.215000
     16 H2           3.1390     1.2460     0.0030 h1         1 LIG       0.036700
     17 H3           2.4750     0.0990    -1.1410 h1         1 LIG       0.036700
     18 H4          -0.7070     2.8180     0.3330 hc         1 LIG       0.037033
     19 H5          -0.7850     1.9720     1.9060 hc         1 LIG       0.037033
     20 H6          -2.2680     2.3900     1.0400 hc         1 LIG       0.037033
     21 H7          -3.3210     0.5460     0.0220 ha         1 LIG       0.126000
@<TRIPOS>BOND
     1     1     2 ar  
     2     2     3 ar  
     3     3     4 1   
     4     4     5 1   
     5     5     6 1   
     6     6     7 1   
     7     6     8 1   
     8     3     9 ar  
     9     9    10 1   
    10     9    11 ar  
    11    11    12 ar  
    12    12    13 1   
    13    12     1 ar  
    14     1    14 1   
    15     2    15 1   
    16     5    16 1   
    17     5    17 1   
    18    10    18 1   
    19    10    19 1   
    20    10    20 1   
    21    11    21 1   
@<TRIPOS>SUBSTRUCTURE
     1 LIG         1 TEMP              0 ****  ****    0 ROOT
