@<TRIPOS>MOLECULE
LIG
   21    20     1     0     0
SMALL
bcc


@<TRIPOS>ATOM
      1 C           -1.8490     0.9970     0.5980 c3         1 LIG      -0.110600
      2 C1          -1.1900    -0.0920    -0.2480 c3         1 LIG       0.133600
      3 O            0.0350    -0.4980     0.3860 os         1 LIG      -0.424600
      4 C2           1.1740     0.3160     0.0540 c3         1 LIG       0.133600
      5 C3           2.1020     0.2760     1.2650 c3         1 LIG      -0.110600
      6 C4           1.8500    -0.2420    -1.2050 c3         1 LIG       0.017500
      7 Cl           3.1630     0.8070    -1.7870 cl         1 LIG      -0.187400
      8 C5          -2.0740    -1.3400    -0.3600 c3         1 LIG       0.017500
      9 Cl1         -3.5380    -1.0480    -1.3270 cl         1 LIG      -0.187400
     10 H           -2.7880     1.3440     0.1570 hc         1 LIG       0.050533
     11 H1          -1.1910     1.8640     0.7080 hc         1 LIG       0.050533
     12 H2          -2.0520     0.6310     1.6110 hc         1 LIG       0.050533
     13 H3          -0.9790     0.2910    -1.2540 h1         1 LIG       0.056200
     14 H4           0.8600     1.3540    -0.1100 h1         1 LIG       0.056200
     15 H5           2.4360    -0.7480     1.4690 hc         1 LIG       0.050533
     16 H6           2.9810     0.9120     1.1310 hc         1 LIG       0.050533
     17 H7           1.5680     0.6140     2.1610 hc         1 LIG       0.050533
     18 H8           2.2630    -1.2390    -1.0180 h1         1 LIG       0.075700
     19 H9           1.1290    -0.3470    -2.0210 h1         1 LIG       0.075700
     20 H10         -1.5200    -2.1550    -0.8370 h1         1 LIG       0.075700
     21 H11         -2.3800    -1.6980     0.6290 h1         1 LIG       0.075700
@<TRIPOS>BOND
     1     1     2 1   
     2     2     3 1   
     3     3     4 1   
     4     4     5 1   
     5     4     6 1   
     6     6     7 1   
     7     2     8 1   
     8     8     9 1   
     9     1    10 1   
    10     1    11 1   
    11     1    12 1   
    12     2    13 1   
    13     4    14 1   
    14     5    15 1   
    15     5    16 1   
    16     5    17 1   
    17     6    18 1   
    18     6    19 1   
    19     8    20 1   
    20     8    21 1   
@<TRIPOS>SUBSTRUCTURE
     1 LIG         1 TEMP              0 ****  ****    0 ROOT
