@<TRIPOS>MOLECULE
LIG
    5     4     1     0     0
SMALL
bcc


@<TRIPOS>ATOM
      1 C           -0.0040     0.0390     0.1270 c3         1 LIG       0.121500
      2 Cl          -0.0420     1.6490    -0.5940 cl         1 LIG      -0.090400
      3 Br          -1.5760    -0.9620    -0.4080 br         1 LIG      -0.078400
      4 Br1          1.6510    -0.8560    -0.3400 br         1 LIG      -0.078400
      5 H           -0.0300     0.1300     1.2160 h3         1 LIG       0.125700
@<TRIPOS>BOND
     1     1     2 1   
     2     1     3 1   
     3     1     4 1   
     4     1     5 1   
@<TRIPOS>SUBSTRUCTURE
     1 LIG         1 TEMP              0 ****  ****    0 ROOT
