@<TRIPOS>MOLECULE
LIG
    7     6     1     0     0
SMALL
bcc


@<TRIPOS>ATOM
      1 O            1.4770     1.0340     0.6760 o          1 LIG      -0.761800
      2 C            1.0070     0.0050     0.0940 c          1 LIG       0.947600
      3 O1           1.6750    -0.9750    -0.3590 o          1 LIG      -0.761800
      4 C1          -0.5420    -0.0460    -0.0730 c3         1 LIG       0.120200
      5 Cl          -1.1450    -1.5160    -0.8980 cl         1 LIG      -0.168400
      6 Br          -1.3660    -0.0030     1.7140 br         1 LIG      -0.187400
      7 Br1         -1.1060     1.5000    -1.1530 br         1 LIG      -0.187400
@<TRIPOS>BOND
     1     1     2 1   
     2     2     3 1   
     3     2     4 1   
     4     4     5 1   
     5     4     6 1   
     6     4     7 1   
@<TRIPOS>SUBSTRUCTURE
     1 LIG         1 TEMP              0 ****  ****    0 ROOT
