@<TRIPOS>MOLECULE
LIG
   36    37     1     0     0
SMALL
bcc


@<TRIPOS>ATOM
      1 C           -2.8140     0.6620     0.0270 ca         1 LIG      -0.182000
      2 C1          -1.6400     0.0890    -0.4790 ca         1 LIG      -0.077000
      3 C2          -1.1430    -1.1170     0.0380 ca         1 LIG      -0.127800
      4 C3           0.1420    -1.7660    -0.5020 c3         1 LIG       0.044900
      5 C4           1.3120    -0.7640    -0.4770 ca         1 LIG      -0.127800
      6 C5           1.9220    -0.4840     0.7620 ca         1 LIG      -0.077000
      7 C6           2.9790     0.4280     0.8690 ca         1 LIG      -0.182000
      8 C7           3.4480     1.0880    -0.2630 ca         1 LIG       0.134100
      9 O            4.4660     1.9990    -0.3030 os         1 LIG      -0.325900
     10 C8           5.1170     2.2890     0.9270 c3         1 LIG       0.112700
     11 C9           2.8450     0.8290    -1.4930 ca         1 LIG      -0.182000
     12 C10          1.7870    -0.0810    -1.6030 ca         1 LIG      -0.077000
     13 C11         -0.0790    -2.6470    -1.7860 c3         1 LIG       0.270200
     14 Cl          -1.1950    -4.0360    -1.4220 cl         1 LIG      -0.122733
     15 Cl1          1.4680    -3.4100    -2.3330 cl         1 LIG      -0.122733
     16 Cl2         -0.7930    -1.7730    -3.1870 cl         1 LIG      -0.122733
     17 C12         -1.8500    -1.7300     1.0850 ca         1 LIG      -0.077000
     18 C13         -3.0210    -1.1550     1.5860 ca         1 LIG      -0.182000
     19 C14         -3.5110     0.0410     1.0610 ca         1 LIG       0.134100
     20 O1          -4.6630     0.4930     1.6420 os         1 LIG      -0.325900
     21 C15         -5.2120     1.7000     1.1280 c3         1 LIG       0.112700
     22 H           -3.1510     1.5970    -0.4100 ha         1 LIG       0.145750
     23 H1          -1.1190     0.6110    -1.2800 ha         1 LIG       0.139500
     24 H2           0.4440    -2.5020     0.2620 hc         1 LIG       0.083700
     25 H3           1.5710    -0.9740     1.6690 ha         1 LIG       0.139500
     26 H4           3.4070     0.6000     1.8510 ha         1 LIG       0.145750
     27 H5           4.4230     2.7360     1.6450 h1         1 LIG       0.045533
     28 H6           5.5950     1.3950     1.3420 h1         1 LIG       0.045533
     29 H7           5.9040     3.0220     0.7240 h1         1 LIG       0.045533
     30 H8           3.2010     1.3450    -2.3820 ha         1 LIG       0.145750
     31 H9           1.3610    -0.2230    -2.5910 ha         1 LIG       0.139500
     32 H10         -1.5040    -2.6630     1.5240 ha         1 LIG       0.139500
     33 H11         -3.5590    -1.6450     2.3940 ha         1 LIG       0.145750
     34 H12         -5.4840     1.5920     0.0730 h1         1 LIG       0.045533
     35 H13         -4.5250     2.5400     1.2760 h1         1 LIG       0.045533
     36 H14         -6.1270     1.9160     1.6880 h1         1 LIG       0.045533
@<TRIPOS>BOND
     1     1     2 ar  
     2     2     3 ar  
     3     3     4 1   
     4     4     5 1   
     5     5     6 ar  
     6     6     7 ar  
     7     7     8 ar  
     8     8     9 1   
     9     9    10 1   
    10     8    11 ar  
    11    11    12 ar  
    12     4    13 1   
    13    13    14 1   
    14    13    15 1   
    15    13    16 1   
    16     3    17 ar  
    17    17    18 ar  
    18    18    19 ar  
    19    19    20 1   
    20    20    21 1   
    21    19     1 ar  
    22    12     5 ar  
    23     1    22 1   
    24     2    23 1   
    25     4    24 1   
    26     6    25 1   
    27     7    26 1   
    28    10    27 1   
    29    10    28 1   
    30    10    29 1   
    31    11    30 1   
    32    12    31 1   
    33    17    32 1   
    34    18    33 1   
    35    21    34 1   
    36    21    35 1   
    37    21    36 1   
@<TRIPOS>SUBSTRUCTURE
     1 LIG         1 TEMP              0 ****  ****    0 ROOT
