@<TRIPOS>MOLECULE
LIG
   38    38     1     0     0
SMALL
bcc


@<TRIPOS>ATOM
      1 C           -2.9150     1.0260    -1.0510 ca         1 LIG      -0.119000
      2 C1          -2.5270    -0.3100    -1.0600 ca         1 LIG      -0.130500
      3 C2          -1.2430    -0.6970    -0.6370 ca         1 LIG      -0.068300
      4 C3          -0.9210    -2.1770    -0.6350 c3         1 LIG      -0.039100
      5 C4          -1.7000    -2.9430     0.4270 c3         1 LIG      -0.094600
      6 C5          -0.3370     0.3040    -0.2140 ca         1 LIG       0.035600
      7 N            0.9860    -0.0300     0.1700 n          1 LIG      -0.412000
      8 C6           1.9890    -0.3820    -0.7340 c          1 LIG       0.662100
      9 O            3.1000    -0.7600    -0.3470 o          1 LIG      -0.596100
     10 C7           1.6560    -0.2890    -2.2200 c3         1 LIG      -0.044000
     11 Cl           3.0880     0.2250    -3.1470 cl         1 LIG      -0.149400
     12 C8           1.2410    -0.1950     1.5920 c3         1 LIG       0.292800
     13 O1           0.9510    -1.5410     1.9520 os         1 LIG      -0.430600
     14 C9           1.3330    -1.8120     3.2920 c3         1 LIG       0.112700
     15 C10         -0.7300     1.6640    -0.1960 ca         1 LIG      -0.068300
     16 C11          0.1970     2.7940     0.2040 c3         1 LIG      -0.039100
     17 C12          0.8880     3.4250    -0.9950 c3         1 LIG      -0.094600
     18 C13         -2.0250     2.0040    -0.6200 ca         1 LIG      -0.130500
     19 H           -3.9140     1.3050    -1.3790 ha         1 LIG       0.136000
     20 H1          -3.2420    -1.0600    -1.3950 ha         1 LIG       0.136500
     21 H2           0.1460    -2.3620    -0.4890 hc         1 LIG       0.047200
     22 H3          -1.1550    -2.5860    -1.6270 hc         1 LIG       0.047200
     23 H4          -1.5210    -2.5340     1.4270 hc         1 LIG       0.041700
     24 H5          -1.3990    -3.9950     0.4290 hc         1 LIG       0.041700
     25 H6          -2.7780    -2.9060     0.2410 hc         1 LIG       0.041700
     26 H7           0.8780     0.4420    -2.4380 h1         1 LIG       0.094700
     27 H8           1.3490    -1.2740    -2.5820 h1         1 LIG       0.094700
     28 H9           2.2920     0.0360     1.8050 h2         1 LIG       0.077200
     29 H10          0.6070     0.4840     2.1730 h2         1 LIG       0.077200
     30 H11          0.8000    -1.1530     3.9840 h1         1 LIG       0.040033
     31 H12          2.4130    -1.6940     3.4140 h1         1 LIG       0.040033
     32 H13          1.0670    -2.8470     3.5230 h1         1 LIG       0.040033
     33 H14         -0.3830     3.5610     0.7340 hc         1 LIG       0.047200
     34 H15          0.9490     2.4580     0.9240 hc         1 LIG       0.047200
     35 H16          1.5220     4.2560    -0.6700 hc         1 LIG       0.041700
     36 H17          1.5230     2.7010    -1.5150 hc         1 LIG       0.041700
     37 H18          0.1630     3.8150    -1.7170 hc         1 LIG       0.041700
     38 H19         -2.3450     3.0450    -0.6250 ha         1 LIG       0.136500
@<TRIPOS>BOND
     1     1     2 ar  
     2     2     3 ar  
     3     3     4 1   
     4     4     5 1   
     5     3     6 ar  
     6     6     7 1   
     7     7     8 1   
     8     8     9 2   
     9     8    10 1   
    10    10    11 1   
    11     7    12 1   
    12    12    13 1   
    13    13    14 1   
    14     6    15 ar  
    15    15    16 1   
    16    16    17 1   
    17    15    18 ar  
    18    18     1 ar  
    19     1    19 1   
    20     2    20 1   
    21     4    21 1   
    22     4    22 1   
    23     5    23 1   
    24     5    24 1   
    25     5    25 1   
    26    10    26 1   
    27    10    27 1   
    28    12    28 1   
    29    12    29 1   
    30    14    30 1   
    31    14    31 1   
    32    14    32 1   
    33    16    33 1   
    34    16    34 1   
    35    17    35 1   
    36    17    36 1   
    37    17    37 1   
    38    18    38 1   
@<TRIPOS>SUBSTRUCTURE
     1 LIG         1 TEMP              0 ****  ****    0 ROOT
