@<TRIPOS>MOLECULE
LIG
   29    30     1     0     0
SMALL
bcc


@<TRIPOS>ATOM
      1 C            4.8470    -0.3180    -1.3950 ca         1 LIG      -0.160000
      2 C1           4.1430    -1.5120    -1.5150 ca         1 LIG      -0.104500
      3 C2           2.7860    -1.5590    -1.1810 ca         1 LIG      -0.171000
      4 C3           2.1210    -0.4130    -0.7250 ca         1 LIG       0.074600
      5 N            0.7560    -0.5490    -0.4090 n          1 LIG      -0.466100
      6 C4          -0.1250     0.4260     0.0210 c          1 LIG       0.710300
      7 O            0.1410     1.6130     0.1790 o          1 LIG      -0.598100
      8 C5          -1.5270    -0.1070     0.2860 ce         1 LIG      -0.229600
      9 C6          -2.3450     0.4960     1.1830 c2         1 LIG       0.169900
     10 C7          -1.9200     1.6360     2.0720 c3         1 LIG      -0.061900
     11 O1          -3.6560     0.1280     1.4490 os         1 LIG      -0.320900
     12 C8          -4.3100    -0.6660     0.4600 c3         1 LIG       0.121400
     13 C9          -3.5430    -1.9430     0.1890 c3         1 LIG      -0.079300
     14 S           -1.9950    -1.5170    -0.6430 ss         1 LIG      -0.181700
     15 C10          2.8370     0.7790    -0.6070 ca         1 LIG      -0.171000
     16 C11          4.1950     0.8260    -0.9410 ca         1 LIG      -0.104500
     17 H            5.9020    -0.2770    -1.6540 ha         1 LIG       0.132000
     18 H1           4.6470    -2.4080    -1.8690 ha         1 LIG       0.131500
     19 H2           2.2590    -2.5030    -1.2860 ha         1 LIG       0.150500
     20 H3           0.3490    -1.4680    -0.5420 hn         1 LIG       0.328500
     21 H4          -2.0230     2.5900     1.5470 hc         1 LIG       0.074033
     22 H5          -0.8940     1.5210     2.4330 hc         1 LIG       0.074033
     23 H6          -2.5530     1.6800     2.9670 hc         1 LIG       0.074033
     24 H7          -5.2960    -0.9190     0.8630 h1         1 LIG       0.074200
     25 H8          -4.4820    -0.0700    -0.4460 h1         1 LIG       0.074200
     26 H9          -3.3080    -2.4660     1.1220 h1         1 LIG       0.090700
     27 H10         -4.1180    -2.6140    -0.4560 h1         1 LIG       0.090700
     28 H11          2.3700     1.6940    -0.2570 ha         1 LIG       0.150500
     29 H12          4.7400     1.7620    -0.8450 ha         1 LIG       0.131500
@<TRIPOS>BOND
     1     1     2 ar  
     2     2     3 ar  
     3     3     4 ar  
     4     4     5 1   
     5     5     6 1   
     6     6     7 2   
     7     6     8 1   
     8     8     9 2   
     9     9    10 1   
    10     9    11 1   
    11    11    12 1   
    12    12    13 1   
    13    13    14 1   
    14     4    15 ar  
    15    15    16 ar  
    16    16     1 ar  
    17    14     8 1   
    18     1    17 1   
    19     2    18 1   
    20     3    19 1   
    21     5    20 1   
    22    10    21 1   
    23    10    22 1   
    24    10    23 1   
    25    12    24 1   
    26    12    25 1   
    27    13    26 1   
    28    13    27 1   
    29    15    28 1   
    30    16    29 1   
@<TRIPOS>SUBSTRUCTURE
     1 LIG         1 TEMP              0 ****  ****    0 ROOT
