@<TRIPOS>MOLECULE
LIG
    5     4     1     0     0
SMALL
bcc


@<TRIPOS>ATOM
      1 C           -0.0720     0.0070     0.1540 c3         1 LIG       0.252000
      2 Cl          -0.7230     1.4980    -0.5520 cl         1 LIG      -0.107400
      3 Cl1         -0.9100    -1.4070    -0.5120 cl         1 LIG      -0.107400
      4 I            1.9610    -0.1310    -0.3210 i          1 LIG      -0.153900
      5 H           -0.2550     0.0340     1.2310 h3         1 LIG       0.115700
@<TRIPOS>BOND
     1     1     2 1   
     2     1     3 1   
     3     1     4 1   
     4     1     5 1   
@<TRIPOS>SUBSTRUCTURE
     1 LIG         1 TEMP              0 ****  ****    0 ROOT
