@<TRIPOS>MOLECULE
LIG
   42    42     1     0     0
SMALL
bcc


@<TRIPOS>ATOM
      1 C           -0.9370     2.5330     3.2040 ca         1 LIG      -0.115000
      2 C1          -0.5100     3.5510     2.3540 ca         1 LIG      -0.115000
      3 C2          -0.0500     3.2440     1.0710 ca         1 LIG      -0.095500
      4 C3          -0.0160     1.9110     0.6330 ca         1 LIG      -0.069600
      5 C4           0.5480     1.6630    -0.7100 c          1 LIG       0.650200
      6 O            0.3380     2.3780    -1.6750 o          1 LIG      -0.533000
      7 O1           1.3860     0.6010    -0.6540 os         1 LIG      -0.429900
      8 C5           2.0160     0.2770    -1.8990 c3         1 LIG       0.140400
      9 C6           2.8040    -1.0200    -1.7350 c3         1 LIG      -0.094400
     10 C7           3.8530    -0.9900    -0.6200 c3         1 LIG      -0.079400
     11 C8           4.9470     0.0420    -0.8470 c3         1 LIG      -0.096100
     12 C9          -0.4830     0.8930     1.4740 ca         1 LIG      -0.069600
     13 C10         -0.5700    -0.5220     1.0640 c          1 LIG       0.650200
     14 O2          -0.2470    -1.4540     1.7800 o          1 LIG      -0.533000
     15 O3          -1.1550    -0.5920    -0.1560 os         1 LIG      -0.429900
     16 C11         -1.3640    -1.9120    -0.6730 c3         1 LIG       0.140400
     17 C12         -2.6730    -2.5160    -0.1650 c3         1 LIG      -0.094400
     18 C13         -3.9350    -1.8770    -0.7540 c3         1 LIG      -0.079400
     19 C14         -4.1780    -0.4420    -0.3150 c3         1 LIG      -0.096100
     20 C15         -0.9250     1.2070     2.7680 ca         1 LIG      -0.095500
     21 H           -1.2880     2.7720     4.2060 ha         1 LIG       0.144000
     22 H1          -0.5270     4.5850     2.6910 ha         1 LIG       0.144000
     23 H2           0.2950     4.0440     0.4180 ha         1 LIG       0.157000
     24 H3           1.2510     0.1340    -2.6720 h1         1 LIG       0.059450
     25 H4           2.6750     1.0980    -2.2020 h1         1 LIG       0.059450
     26 H5           2.0990    -1.8280    -1.5010 hc         1 LIG       0.054700
     27 H6           3.2820    -1.2750    -2.6880 hc         1 LIG       0.054700
     28 H7           3.3740    -0.8060     0.3480 hc         1 LIG       0.043450
     29 H8           4.3170    -1.9820    -0.5550 hc         1 LIG       0.043450
     30 H9           5.7180    -0.0520    -0.0750 hc         1 LIG       0.035033
     31 H10          5.4250    -0.0990    -1.8210 hc         1 LIG       0.035033
     32 H11          4.5520     1.0610    -0.7980 hc         1 LIG       0.035033
     33 H12         -1.3790    -1.8350    -1.7660 h1         1 LIG       0.059450
     34 H13         -0.5170    -2.5590    -0.4160 h1         1 LIG       0.059450
     35 H14         -2.6820    -3.5800    -0.4300 hc         1 LIG       0.054700
     36 H15         -2.7200    -2.4550     0.9290 hc         1 LIG       0.054700
     37 H16         -3.9010    -1.9220    -1.8490 hc         1 LIG       0.043450
     38 H17         -4.7970    -2.4790    -0.4420 hc         1 LIG       0.043450
     39 H18         -4.1260    -0.3460     0.7740 hc         1 LIG       0.035033
     40 H19         -3.4530     0.2440    -0.7620 hc         1 LIG       0.035033
     41 H20         -5.1730    -0.1160    -0.6350 hc         1 LIG       0.035033
     42 H21         -1.2740     0.4180     3.4330 ha         1 LIG       0.157000
@<TRIPOS>BOND
     1     1     2 ar  
     2     2     3 ar  
     3     3     4 ar  
     4     4     5 1   
     5     5     6 2   
     6     5     7 1   
     7     7     8 1   
     8     8     9 1   
     9     9    10 1   
    10    10    11 1   
    11     4    12 ar  
    12    12    13 1   
    13    13    14 2   
    14    13    15 1   
    15    15    16 1   
    16    16    17 1   
    17    17    18 1   
    18    18    19 1   
    19    12    20 ar  
    20    20     1 ar  
    21     1    21 1   
    22     2    22 1   
    23     3    23 1   
    24     8    24 1   
    25     8    25 1   
    26     9    26 1   
    27     9    27 1   
    28    10    28 1   
    29    10    29 1   
    30    11    30 1   
    31    11    31 1   
    32    11    32 1   
    33    16    33 1   
    34    16    34 1   
    35    17    35 1   
    36    17    36 1   
    37    18    37 1   
    38    18    38 1   
    39    19    39 1   
    40    19    40 1   
    41    19    41 1   
    42    20    42 1   
@<TRIPOS>SUBSTRUCTURE
     1 LIG         1 TEMP              0 ****  ****    0 ROOT
