@<TRIPOS>MOLECULE
LIG
   30    30     1     0     0
SMALL
bcc


@<TRIPOS>ATOM
      1 C           -1.2120     3.5120    -1.0580 ca         1 LIG      -0.116000
      2 C1          -0.0230     3.5810    -1.7830 ca         1 LIG      -0.116000
      3 C2           0.7550     2.4360    -1.9570 ca         1 LIG      -0.093000
      4 C3           0.3480     1.2150    -1.3990 ca         1 LIG      -0.071100
      5 C4           1.2490     0.0630    -1.5810 c          1 LIG       0.649200
      6 O            1.7420    -0.2450    -2.6530 o          1 LIG      -0.528000
      7 O1           1.5210    -0.4780    -0.3680 os         1 LIG      -0.433900
      8 C5           2.4190    -1.5920    -0.4220 c3         1 LIG       0.140400
      9 C6           2.7100    -2.0370     0.9980 c3         1 LIG      -0.113100
     10 C7          -0.8560     1.1370    -0.6880 ca         1 LIG      -0.071100
     11 C8          -1.3660    -0.1610    -0.1960 c          1 LIG       0.649200
     12 O2          -1.2750    -1.2090    -0.8110 o          1 LIG      -0.528000
     13 O3          -1.9390     0.0180     1.0210 os         1 LIG      -0.433900
     14 C9          -2.5020    -1.1580     1.6210 c3         1 LIG       0.140400
     15 C10         -1.4330    -1.9330     2.3680 c3         1 LIG      -0.113100
     16 C11         -1.6320     2.2950    -0.5170 ca         1 LIG      -0.093000
     17 H           -1.8190     4.4050    -0.9250 ha         1 LIG       0.143500
     18 H1           0.2980     4.5270    -2.2140 ha         1 LIG       0.143500
     19 H2           1.6840     2.4950    -2.5220 ha         1 LIG       0.156500
     20 H3           1.9530    -2.4110    -0.9810 h1         1 LIG       0.058950
     21 H4           3.3540    -1.2960    -0.9110 h1         1 LIG       0.058950
     22 H5           1.7870    -2.3260     1.5100 hc         1 LIG       0.048867
     23 H6           3.1520    -1.2190     1.5750 hc         1 LIG       0.048867
     24 H7           3.3980    -2.8870     1.0060 hc         1 LIG       0.048867
     25 H8          -3.0020    -1.7830     0.8730 h1         1 LIG       0.058950
     26 H9          -3.2700    -0.8200     2.3240 h1         1 LIG       0.058950
     27 H10         -0.6690    -2.3080     1.6800 hc         1 LIG       0.048867
     28 H11         -0.9240    -1.2900     3.0920 hc         1 LIG       0.048867
     29 H12         -1.8710    -2.7850     2.8970 hc         1 LIG       0.048867
     30 H13         -2.5770     2.2520     0.0210 ha         1 LIG       0.156500
@<TRIPOS>BOND
     1     1     2 ar  
     2     2     3 ar  
     3     3     4 ar  
     4     4     5 1   
     5     5     6 2   
     6     5     7 1   
     7     7     8 1   
     8     8     9 1   
     9     4    10 ar  
    10    10    11 1   
    11    11    12 2   
    12    11    13 1   
    13    13    14 1   
    14    14    15 1   
    15    10    16 ar  
    16    16     1 ar  
    17     1    17 1   
    18     2    18 1   
    19     3    19 1   
    20     8    20 1   
    21     8    21 1   
    22     9    22 1   
    23     9    23 1   
    24     9    24 1   
    25    14    25 1   
    26    14    26 1   
    27    15    27 1   
    28    15    28 1   
    29    15    29 1   
    30    16    30 1   
@<TRIPOS>SUBSTRUCTURE
     1 LIG         1 TEMP              0 ****  ****    0 ROOT
