@<TRIPOS>MOLECULE
LIG
   31    30     1     0     0
SMALL
bcc


@<TRIPOS>ATOM
      1 C           -1.3320     0.4400     0.6780 ce         1 LIG      -0.268200
      2 C1          -2.6050    -0.3040     0.8410 c          1 LIG       0.679300
      3 O           -2.6700    -1.2390     1.6340 o          1 LIG      -0.620100
      4 N           -3.6790     0.1440     0.0880 n          1 LIG      -0.478800
      5 C2          -4.9920    -0.4270     0.3390 c3         1 LIG       0.082300
      6 C3          -3.6260     1.2120    -0.9010 c3         1 LIG       0.082300
      7 C4          -0.1330    -0.1410     0.5250 c2         1 LIG       0.182900
      8 O1           0.9750     0.6970     0.4370 os         1 LIG      -0.473500
      9 P            2.5130     0.2900     0.1700 p5         1 LIG       1.612500
     10 O2           3.0980    -0.7390     1.0870 o          1 LIG      -0.806300
     11 O3           2.5370    -0.0920    -1.3980 os         1 LIG      -0.562700
     12 C5           3.4450    -1.0950    -1.8040 c3         1 LIG       0.147200
     13 O4           3.2580     1.7210     0.2030 os         1 LIG      -0.562700
     14 C6           4.6660     1.7290     0.1130 c3         1 LIG       0.147200
     15 C7           0.1180    -1.6170     0.4290 c3         1 LIG      -0.185900
     16 H           -1.4080     1.5200     0.7360 ha         1 LIG       0.159000
     17 H1          -5.6630     0.3710     0.6720 h1         1 LIG       0.042533
     18 H2          -4.9680    -1.2080     1.1030 h1         1 LIG       0.042533
     19 H3          -5.3730    -0.8570    -0.5930 h1         1 LIG       0.042533
     20 H4          -4.0250     2.1240    -0.4480 h1         1 LIG       0.042533
     21 H5          -2.6100     1.3990    -1.2550 h1         1 LIG       0.042533
     22 H6          -4.2400     0.9340    -1.7630 h1         1 LIG       0.042533
     23 H7           4.4570    -0.8590    -1.4650 h1         1 LIG       0.051700
     24 H8           3.4420    -1.1510    -2.8950 h1         1 LIG       0.051700
     25 H9           3.1360    -2.0630    -1.4000 h1         1 LIG       0.051700
     26 H10          5.1050     1.0520     0.8500 h1         1 LIG       0.051700
     27 H11          4.9780     1.4400    -0.8940 h1         1 LIG       0.051700
     28 H12          5.0230     2.7420     0.3120 h1         1 LIG       0.051700
     29 H13          0.6460    -1.9700     1.3200 hc         1 LIG       0.100033
     30 H14         -0.7980    -2.2040     0.3280 hc         1 LIG       0.100033
     31 H15          0.7230    -1.8480    -0.4530 hc         1 LIG       0.100033
@<TRIPOS>BOND
     1     1     2 1   
     2     2     3 2   
     3     2     4 1   
     4     4     5 1   
     5     4     6 1   
     6     1     7 2   
     7     7     8 1   
     8     8     9 1   
     9     9    10 2   
    10     9    11 1   
    11    11    12 1   
    12     9    13 1   
    13    13    14 1   
    14     7    15 1   
    15     1    16 1   
    16     5    17 1   
    17     5    18 1   
    18     5    19 1   
    19     6    20 1   
    20     6    21 1   
    21     6    22 1   
    22    12    23 1   
    23    12    24 1   
    24    12    25 1   
    25    14    26 1   
    26    14    27 1   
    27    14    28 1   
    28    15    29 1   
    29    15    30 1   
    30    15    31 1   
@<TRIPOS>SUBSTRUCTURE
     1 LIG         1 TEMP              0 ****  ****    0 ROOT
