@<TRIPOS>MOLECULE
LIG
    8     7     1     0     0
SMALL
bcc


@<TRIPOS>ATOM
      1 C            1.2420     0.0990    -0.1380 c          1 LIG       0.558100
      2 O            1.4750     1.2580     0.1810 o          1 LIG      -0.531100
      3 C1          -0.1150    -0.4990    -0.1350 ce         1 LIG      -0.284200
      4 C2          -1.1830     0.2210     0.2260 c2         1 LIG      -0.124000
      5 H            2.0420    -0.5900    -0.4540 h4         1 LIG      -0.002800
      6 H1          -0.1950    -1.5350    -0.4380 ha         1 LIG       0.133000
      7 H2          -2.1760    -0.2150     0.2280 ha         1 LIG       0.125500
      8 H3          -1.0900     1.2620     0.5280 ha         1 LIG       0.125500
@<TRIPOS>BOND
     1     1     2 2   
     2     1     3 1   
     3     3     4 2   
     4     1     5 1   
     5     3     6 1   
     6     4     7 1   
     7     4     8 1   
@<TRIPOS>SUBSTRUCTURE
     1 LIG         1 TEMP              0 ****  ****    0 ROOT
