@<TRIPOS>MOLECULE
LIG
   44    43     1     0     0
SMALL
bcc


@<TRIPOS>ATOM
      1 C           -5.6120    -3.1030     1.0200 c3         1 LIG      -0.092100
      2 C1          -4.7710    -2.2330     0.1000 c3         1 LIG      -0.080733
      3 C2          -3.3040    -2.2290     0.5210 c3         1 LIG      -0.080400
      4 C3          -2.4580    -1.3580    -0.3980 c3         1 LIG       0.156400
      5 O           -1.1140    -1.4010     0.0510 os         1 LIG      -0.556200
      6 P           -0.0560    -0.5030    -0.7650 p5         1 LIG       1.586500
      7 O1          -0.0230    -0.7450    -2.2410 o          1 LIG      -0.815300
      8 O2           1.3310    -0.7750     0.0040 os         1 LIG      -0.556200
      9 C4           1.9230    -2.0480    -0.1840 c3         1 LIG       0.156400
     10 C5           3.2280    -2.1250     0.6010 c3         1 LIG      -0.080400
     11 C6           4.2640    -1.1170     0.0970 c3         1 LIG      -0.080733
     12 C7           5.5700    -1.2320     0.8670 c3         1 LIG      -0.092100
     13 O3          -0.4310     1.0000    -0.3270 os         1 LIG      -0.556200
     14 C8           0.3470     2.0370    -0.9010 c3         1 LIG       0.156400
     15 C9          -0.0990     3.3650    -0.3040 c3         1 LIG      -0.080400
     16 C10          0.6920     4.5350    -0.8800 c3         1 LIG      -0.080733
     17 C11          0.2430     5.8590    -0.2820 c3         1 LIG      -0.092100
     18 H           -5.2640    -4.1410     1.0040 hc         1 LIG       0.034589
     19 H1          -6.6590    -3.0910     0.7010 hc         1 LIG       0.034589
     20 H2          -5.5670    -2.7420     2.0520 hc         1 LIG       0.034589
     21 H3          -5.1650    -1.2100     0.1130 hc         1 LIG       0.042367
     22 H4          -4.8620    -2.6030    -0.9280 hc         1 LIG       0.042367
     23 H5          -2.9060    -3.2520     0.5200 hc         1 LIG       0.056533
     24 H6          -3.2060    -1.8700     1.5530 hc         1 LIG       0.056533
     25 H7          -2.8140    -0.3230    -0.3800 h1         1 LIG       0.047367
     26 H8          -2.5050    -1.7300    -1.4270 h1         1 LIG       0.047367
     27 H9           1.2330    -2.8200     0.1740 h1         1 LIG       0.047367
     28 H10          2.1070    -2.2130    -1.2510 h1         1 LIG       0.047367
     29 H11          3.0250    -1.9260     1.6600 hc         1 LIG       0.056533
     30 H12          3.6320    -3.1410     0.5240 hc         1 LIG       0.056533
     31 H13          3.8790    -0.0960     0.1990 hc         1 LIG       0.042367
     32 H14          4.4590    -1.2860    -0.9680 hc         1 LIG       0.042367
     33 H15          6.2960    -0.5040     0.4920 hc         1 LIG       0.034589
     34 H16          5.4150    -1.0380     1.9340 hc         1 LIG       0.034589
     35 H17          6.0030    -2.2310     0.7580 hc         1 LIG       0.034589
     36 H18          1.4070     1.8580    -0.6900 h1         1 LIG       0.047367
     37 H19          0.1990     2.0360    -1.9860 h1         1 LIG       0.047367
     38 H20          0.0160     3.3290     0.7870 hc         1 LIG       0.056533
     39 H21         -1.1720     3.5030    -0.4880 hc         1 LIG       0.056533
     40 H22          1.7610     4.3960    -0.6830 hc         1 LIG       0.042367
     41 H23          0.5650     4.5710    -1.9680 hc         1 LIG       0.042367
     42 H24          0.8240     6.6830    -0.7090 hc         1 LIG       0.034589
     43 H25         -0.8150     6.0450    -0.4920 hc         1 LIG       0.034589
     44 H26          0.3860     5.8680     0.8030 hc         1 LIG       0.034589
@<TRIPOS>BOND
     1     1     2 1   
     2     2     3 1   
     3     3     4 1   
     4     4     5 1   
     5     5     6 1   
     6     6     7 2   
     7     6     8 1   
     8     8     9 1   
     9     9    10 1   
    10    10    11 1   
    11    11    12 1   
    12     6    13 1   
    13    13    14 1   
    14    14    15 1   
    15    15    16 1   
    16    16    17 1   
    17     1    18 1   
    18     1    19 1   
    19     1    20 1   
    20     2    21 1   
    21     2    22 1   
    22     3    23 1   
    23     3    24 1   
    24     4    25 1   
    25     4    26 1   
    26     9    27 1   
    27     9    28 1   
    28    10    29 1   
    29    10    30 1   
    30    11    31 1   
    31    11    32 1   
    32    12    33 1   
    33    12    34 1   
    34    12    35 1   
    35    14    36 1   
    36    14    37 1   
    37    15    38 1   
    38    15    39 1   
    39    16    40 1   
    40    16    41 1   
    41    17    42 1   
    42    17    43 1   
    43    17    44 1   
@<TRIPOS>SUBSTRUCTURE
     1 LIG         1 TEMP              0 ****  ****    0 ROOT
