@<TRIPOS>MOLECULE
LIG
   11    11     1     0     0
SMALL
bcc


@<TRIPOS>ATOM
      1 Cl           0.1000     2.8040     1.0800 cl         1 LIG      -0.007400
      2 C            0.0510     1.2170     0.4690 ce         1 LIG       0.025400
      3 C1          -1.0480     0.5060     0.1860 c2         1 LIG      -0.050800
      4 Cl1         -2.6690     1.0000     0.3640 cl         1 LIG       0.004600
      5 C2          -0.6630    -0.8550    -0.3340 c3         1 LIG       0.225200
      6 Cl2         -1.2620    -2.1400     0.7380 cl         1 LIG      -0.083400
      7 Cl3         -1.2400    -1.0860    -2.0000 cl         1 LIG      -0.083400
      8 C3           0.8410    -0.7730    -0.2910 c2         1 LIG      -0.050800
      9 Cl4          1.8490    -2.0580    -0.7780 cl         1 LIG       0.004600
     10 C4           1.2220     0.4240     0.1730 ce         1 LIG       0.025400
     11 Cl5          2.8210     0.9620     0.3930 cl         1 LIG      -0.007400
@<TRIPOS>BOND
     1     1     2 1   
     2     2     3 2   
     3     3     4 1   
     4     3     5 1   
     5     5     6 1   
     6     5     7 1   
     7     5     8 1   
     8     8     9 1   
     9     8    10 2   
    10    10    11 1   
    11    10     2 1   
@<TRIPOS>SUBSTRUCTURE
     1 LIG         1 TEMP              0 ****  ****    0 ROOT
