@<TRIPOS>MOLECULE
LIG
    7     6     1     0     0
SMALL
bcc


@<TRIPOS>ATOM
      1 O           -1.5030    -1.1370    -0.1970 o          1 LIG      -0.147500
      2 N           -0.9330    -0.0730     0.1000 no         1 LIG       0.232300
      3 O1          -1.5400     0.9250     0.5330 o          1 LIG      -0.147500
      4 C            0.5930     0.0360    -0.0680 c3         1 LIG       0.182900
      5 Cl           0.8820     1.3590    -1.2110 cl         1 LIG      -0.040067
      6 Cl1          1.2470    -1.4870    -0.7000 cl         1 LIG      -0.040067
      7 Cl2          1.2540     0.3770     1.5420 cl         1 LIG      -0.040067
@<TRIPOS>BOND
     1     1     2 1   
     2     2     3 1   
     3     2     4 1   
     4     4     5 1   
     5     4     6 1   
     6     4     7 1   
@<TRIPOS>SUBSTRUCTURE
     1 LIG         1 TEMP              0 ****  ****    0 ROOT
