@<TRIPOS>MOLECULE
LIG
   24    23     1     0     0
SMALL
bcc


@<TRIPOS>ATOM
      1 N            2.9680     0.2330     0.0490 n          1 LIG      -0.548900
      2 C            1.9030     0.6090     0.8510 c          1 LIG       0.650100
      3 O            1.3830     1.7210     0.8060 o          1 LIG      -0.629100
      4 C1           1.4020    -0.4940     1.7650 c3         1 LIG       0.026700
      5 S            0.3380    -1.6070     0.8090 ss         1 LIG      -0.412500
      6 P           -1.5560    -0.6810     0.8900 p5         1 LIG       0.864200
      7 S1          -2.3360    -0.4300     2.6610 s          1 LIG      -0.390000
      8 O1          -2.5010    -1.5770    -0.0920 os         1 LIG      -0.495700
      9 C2          -3.8580    -1.2150    -0.2550 c3         1 LIG       0.129200
     10 O2          -1.5100     0.7100     0.0550 os         1 LIG      -0.495700
     11 C3          -1.0740     0.7310    -1.2950 c3         1 LIG       0.129200
     12 C4           3.4380     1.0990    -1.0110 c3         1 LIG       0.074300
     13 H            3.1450    -0.7640    -0.0560 hn         1 LIG       0.322500
     14 H1           2.2530    -1.0540     2.1630 h1         1 LIG       0.103200
     15 H2           0.8710    -0.0480     2.6120 h1         1 LIG       0.103200
     16 H3          -3.9850    -0.1300    -0.2530 h1         1 LIG       0.070367
     17 H4          -4.4500    -1.6630     0.5440 h1         1 LIG       0.070367
     18 H5          -4.2090    -1.6090    -1.2120 h1         1 LIG       0.070367
     19 H6          -1.5800    -0.0360    -1.8900 h1         1 LIG       0.070367
     20 H7          -1.3110     1.7170    -1.7140 h1         1 LIG       0.070367
     21 H8           0.0070     0.5840    -1.3590 h1         1 LIG       0.070367
     22 H9           2.8020     0.9370    -1.8910 h1         1 LIG       0.048700
     23 H10          4.4670     0.8170    -1.2560 h1         1 LIG       0.048700
     24 H11          3.3940     2.1520    -0.7170 h1         1 LIG       0.048700
@<TRIPOS>BOND
     1     1     2 1   
     2     2     3 2   
     3     2     4 1   
     4     4     5 1   
     5     5     6 1   
     6     6     7 2   
     7     6     8 1   
     8     8     9 1   
     9     6    10 1   
    10    10    11 1   
    11     1    12 1   
    12     1    13 1   
    13     4    14 1   
    14     4    15 1   
    15     9    16 1   
    16     9    17 1   
    17     9    18 1   
    18    11    19 1   
    19    11    20 1   
    20    11    21 1   
    21    12    22 1   
    22    12    23 1   
    23    12    24 1   
@<TRIPOS>SUBSTRUCTURE
     1 LIG         1 TEMP              0 ****  ****    0 ROOT
