@<TRIPOS>MOLECULE
LIG
   32    31     1     0     0
SMALL
bcc


@<TRIPOS>ATOM
      1 C           -1.3430    -4.1140    -0.8190 c3         1 LIG      -0.122100
      2 C1          -1.4520    -2.8290    -1.6150 c3         1 LIG       0.152400
      3 O           -0.1730    -2.2260    -1.7070 os         1 LIG      -0.525200
      4 P            0.1220    -0.9190    -0.7980 p5         1 LIG       1.072500
      5 O1          -0.3370    -1.1220     0.6210 o          1 LIG      -0.657300
      6 S           -0.8720     0.7200    -1.6430 ss         1 LIG      -0.484500
      7 C2          -1.5060     1.6590    -0.2310 c3         1 LIG       0.168200
      8 C3          -2.8550     1.1110     0.2250 c3         1 LIG      -0.086400
      9 C4          -3.3880     1.8920     1.4180 c3         1 LIG      -0.095100
     10 S1           2.1820    -0.5710    -0.8150 ss         1 LIG      -0.484500
     11 C5           2.4340     0.6000     0.5450 c3         1 LIG       0.168200
     12 C6           3.8950     1.0170     0.6980 c3         1 LIG      -0.086400
     13 C7           4.4160     1.8670    -0.4530 c3         1 LIG      -0.095100
     14 H           -2.3120    -4.6170    -0.7560 hc         1 LIG       0.052700
     15 H1          -0.9830    -3.9130     0.1950 hc         1 LIG       0.052700
     16 H2          -0.6210    -4.7940    -1.2830 hc         1 LIG       0.052700
     17 H3          -2.1790    -2.1520    -1.1540 h1         1 LIG       0.066200
     18 H4          -1.7950    -3.0460    -2.6310 h1         1 LIG       0.066200
     19 H5          -1.6140     2.7030    -0.5420 h1         1 LIG       0.078200
     20 H6          -0.7740     1.6320     0.5820 h1         1 LIG       0.078200
     21 H7          -3.5860     1.1740    -0.5910 hc         1 LIG       0.060450
     22 H8          -2.7730     0.0550     0.5070 hc         1 LIG       0.060450
     23 H9          -4.3570     1.4920     1.7310 hc         1 LIG       0.038533
     24 H10         -3.5220     2.9490     1.1660 hc         1 LIG       0.038533
     25 H11         -2.7010     1.8250     2.2680 hc         1 LIG       0.038533
     26 H12          2.0960     0.1220     1.4700 h1         1 LIG       0.078200
     27 H13          1.8050     1.4800     0.3780 h1         1 LIG       0.078200
     28 H14          3.9870     1.6030     1.6210 hc         1 LIG       0.060450
     29 H15          4.5350     0.1360     0.8260 hc         1 LIG       0.060450
     30 H16          5.4330     2.2080    -0.2360 hc         1 LIG       0.038533
     31 H17          3.7880     2.7520    -0.6010 hc         1 LIG       0.038533
     32 H18          4.4480     1.3060    -1.3910 hc         1 LIG       0.038533
@<TRIPOS>BOND
     1     1     2 1   
     2     2     3 1   
     3     3     4 1   
     4     4     5 2   
     5     4     6 1   
     6     6     7 1   
     7     7     8 1   
     8     8     9 1   
     9     4    10 1   
    10    10    11 1   
    11    11    12 1   
    12    12    13 1   
    13     1    14 1   
    14     1    15 1   
    15     1    16 1   
    16     2    17 1   
    17     2    18 1   
    18     7    19 1   
    19     7    20 1   
    20     8    21 1   
    21     8    22 1   
    22     9    23 1   
    23     9    24 1   
    24     9    25 1   
    25    11    26 1   
    26    11    27 1   
    27    12    28 1   
    28    12    29 1   
    29    13    30 1   
    30    13    31 1   
    31    13    32 1   
@<TRIPOS>SUBSTRUCTURE
     1 LIG         1 TEMP              0 ****  ****    0 ROOT
