@<TRIPOS>MOLECULE
LIG
    5     4     1     0     0
SMALL
bcc


@<TRIPOS>ATOM
      1 N           -0.0000     0.0000     0.0000 n4         1 LIG      -0.913200
      2 H           -0.6080    -0.7290    -0.3910 hn         1 LIG       0.478800
      3 H1          -0.3830     0.9250    -0.2300 hn         1 LIG       0.478800
      4 H2           0.0490    -0.1060     1.0200 hn         1 LIG       0.478800
      5 H3           0.9420    -0.0900    -0.3990 hn         1 LIG       0.478800
@<TRIPOS>BOND
     1     1     2 1   
     2     1     3 1   
     3     1     4 1   
     4     1     5 1   
@<TRIPOS>SUBSTRUCTURE
     1 LIG         1 TEMP              0 ****  ****    0 ROOT
