@<TRIPOS>MOLECULE
LIG
    3     2     1     0     0
SMALL
bcc


@<TRIPOS>ATOM
      1 N           -1.3610    -0.0170     0.0000 n1         1 LIG      -0.333800
      2 C           -0.2010    -0.0030     0.0000 c1         1 LIG       0.245700
      3 Cl           1.5610     0.0190     0.0000 cl         1 LIG       0.087100
@<TRIPOS>BOND
     1     1     2 3   
     2     2     3 1   
@<TRIPOS>SUBSTRUCTURE
     1 LIG         1 TEMP              0 ****  ****    0 ROOT
