@<TRIPOS>MOLECULE
LIG
    8     7     1     0     0
SMALL
bcc


@<TRIPOS>ATOM
      1 C            0.6880    -0.3200    -0.0070 c3         1 LIG       0.022000
      2 Cl           1.9530     0.9290     0.1000 cl         1 LIG      -0.181400
      3 C1          -0.6880     0.3200     0.0070 c3         1 LIG       0.022000
      4 Cl1         -1.9530    -0.9290    -0.1000 cl         1 LIG      -0.181400
      5 H            0.8210    -0.9970     0.8430 h1         1 LIG       0.079700
      6 H1           0.8570    -0.8830    -0.9300 h1         1 LIG       0.079700
      7 H2          -0.8210     0.9970    -0.8430 h1         1 LIG       0.079700
      8 H3          -0.8570     0.8830     0.9300 h1         1 LIG       0.079700
@<TRIPOS>BOND
     1     1     2 1   
     2     1     3 1   
     3     3     4 1   
     4     1     5 1   
     5     1     6 1   
     6     3     7 1   
     7     3     8 1   
@<TRIPOS>SUBSTRUCTURE
     1 LIG         1 TEMP              0 ****  ****    0 ROOT
