@<TRIPOS>MOLECULE
LIG
   16    16     1     0     0
SMALL
bcc


@<TRIPOS>ATOM
      1 C           -0.1830     1.8290    -0.1350 cc         1 LIG      -0.284000
      2 C1           1.0630     1.2720     0.1840 cd         1 LIG      -0.016000
      3 C2           1.1880    -0.1130     0.2830 cd         1 LIG      -0.256300
      4 N            2.4860    -0.7050     0.6160 no         1 LIG       0.238300
      5 O            3.4460     0.0600     0.8020 o          1 LIG      -0.277500
      6 O1           2.5580    -1.9410     0.6950 o          1 LIG      -0.277500
      7 C3           0.0870    -0.9370     0.0680 cd         1 LIG       0.075000
      8 C4          -1.1440    -0.3370    -0.2500 cc         1 LIG      -0.369100
      9 N1          -2.2520    -1.2620    -0.4630 no         1 LIG       0.315100
     10 O2          -2.3770    -1.7480    -1.6010 o          1 LIG      -0.262500
     11 O3          -2.8780    -1.6410     0.5430 o          1 LIG      -0.262500
     12 C5          -1.3440     1.0620    -0.3670 c          1 LIG       0.553100
     13 O4          -2.4510     1.6250    -0.6540 o          1 LIG      -0.610100
     14 H           -0.2620     2.9160    -0.2080 ha         1 LIG       0.131000
     15 H1           1.9050     1.9380     0.3480 ha         1 LIG       0.135000
     16 H2           0.1580    -2.0180     0.1390 ha         1 LIG       0.167000
@<TRIPOS>BOND
     1     1     2 2   
     2     2     3 1   
     3     3     4 2   
     4     4     5 1   
     5     4     6 1   
     6     3     7 1   
     7     7     8 2   
     8     8     9 1   
     9     9    10 1   
    10     9    11 1   
    11     8    12 1   
    12    12    13 2   
    13    12     1 1   
    14     1    14 1   
    15     2    15 1   
    16     7    16 1   
@<TRIPOS>SUBSTRUCTURE
     1 LIG         1 TEMP              0 ****  ****    0 ROOT
