@<TRIPOS>MOLECULE
LIG
    7     6     1     0     0
SMALL
bcc


@<TRIPOS>ATOM
      1 O            1.1870     1.2970    -0.8690 o          1 LIG      -0.762300
      2 C            0.9490     0.1980    -0.2830 c          1 LIG       0.949600
      3 O1           1.8010    -0.7070    -0.0070 o          1 LIG      -0.762300
      4 C1          -0.5230    -0.0910     0.1470 c3         1 LIG       0.071200
      5 Br          -0.5520    -0.3350     2.1090 br         1 LIG      -0.165400
      6 Br1         -1.1150    -1.7440    -0.7610 br         1 LIG      -0.165400
      7 Br2         -1.7470     1.3820    -0.3360 br         1 LIG      -0.165400
@<TRIPOS>BOND
     1     1     2 1   
     2     2     3 1   
     3     2     4 1   
     4     4     5 1   
     5     4     6 1   
     6     4     7 1   
@<TRIPOS>SUBSTRUCTURE
     1 LIG         1 TEMP              0 ****  ****    0 ROOT
