@<TRIPOS>MOLECULE
LIG
   35    36     1     0     0
SMALL
bcc


@<TRIPOS>ATOM
      1 C            1.0470     1.8850    -2.1070 ca         1 LIG      -0.197000
      2 C1           2.2420     2.3900    -1.6060 ca         1 LIG      -0.009000
      3 C2           2.8600     1.7270    -0.5360 ca         1 LIG      -0.251200
      4 N            4.1070     2.2730    -0.0420 no         1 LIG       0.329200
      5 O            4.0500     3.3830     0.5070 o          1 LIG      -0.208000
      6 O1           5.1390     1.6220    -0.2540 o          1 LIG      -0.208000
      7 C3           2.3180     0.5760     0.0550 ca         1 LIG       0.237100
      8 O2           3.0030     0.0310     1.1030 os         1 LIG      -0.284900
      9 C4           2.5050    -1.1380     1.7530 c3         1 LIG       0.123400
     10 C5           2.9550    -2.3960     1.0320 c3         1 LIG      -0.134100
     11 C6           1.1190     0.0840    -0.4670 ca         1 LIG      -0.293000
     12 C7           0.4810     0.7480    -1.5280 ca         1 LIG       0.198100
     13 O3          -0.6870     0.2830    -2.0940 os         1 LIG      -0.235200
     14 C8          -1.7000    -0.0620    -1.2260 ca         1 LIG       0.108100
     15 C9          -2.2240     0.8790    -0.3340 ca         1 LIG      -0.124000
     16 C10         -3.2790     0.5270     0.5120 ca         1 LIG      -0.075000
     17 C11         -3.8270    -0.7650     0.4700 ca         1 LIG      -0.159300
     18 C12         -4.9840    -1.1420     1.3660 c3         1 LIG       0.689200
     19 F           -5.0250    -0.4170     2.5170 f          1 LIG      -0.231300
     20 F1          -6.1870    -0.9570     0.7590 f          1 LIG      -0.231300
     21 F2          -4.9510    -2.4480     1.7490 f          1 LIG      -0.231300
     22 C13         -3.3120    -1.6930    -0.4510 ca         1 LIG      -0.074000
     23 C14         -2.2570    -1.3420    -1.2970 ca         1 LIG       0.000400
     24 Cl          -1.6560    -2.5240    -2.4000 cl         1 LIG      -0.042400
     25 H            0.5540     2.3740    -2.9450 ha         1 LIG       0.168000
     26 H1           2.6880     3.2790    -2.0450 ha         1 LIG       0.179000
     27 H2           1.4200    -1.1030     1.9010 h1         1 LIG       0.065700
     28 H3           2.9430    -1.1420     2.7580 h1         1 LIG       0.065700
     29 H4           2.6370    -3.2890     1.5780 hc         1 LIG       0.053700
     30 H5           2.5470    -2.4460     0.0180 hc         1 LIG       0.053700
     31 H6           4.0460    -2.4130     0.9350 hc         1 LIG       0.053700
     32 H7           0.6660    -0.8220    -0.0810 ha         1 LIG       0.161000
     33 H8          -1.8220     1.8890    -0.2980 ha         1 LIG       0.167000
     34 H9          -3.6770     1.2700     1.2040 ha         1 LIG       0.164000
     35 H10         -3.7400    -2.6940    -0.5070 ha         1 LIG       0.173000
@<TRIPOS>BOND
     1     1     2 ar  
     2     2     3 ar  
     3     3     4 1   
     4     4     5 1   
     5     4     6 1   
     6     3     7 ar  
     7     7     8 1   
     8     8     9 1   
     9     9    10 1   
    10     7    11 ar  
    11    11    12 ar  
    12    12    13 1   
    13    13    14 1   
    14    14    15 ar  
    15    15    16 ar  
    16    16    17 ar  
    17    17    18 1   
    18    18    19 1   
    19    18    20 1   
    20    18    21 1   
    21    17    22 ar  
    22    22    23 ar  
    23    23    24 1   
    24    12     1 ar  
    25    23    14 ar  
    26     1    25 1   
    27     2    26 1   
    28     9    27 1   
    29     9    28 1   
    30    10    29 1   
    31    10    30 1   
    32    10    31 1   
    33    11    32 1   
    34    15    33 1   
    35    16    34 1   
    36    22    35 1   
@<TRIPOS>SUBSTRUCTURE
     1 LIG         1 TEMP              0 ****  ****    0 ROOT
