@<TRIPOS>MOLECULE
LIG
   22    24     1     0     0
SMALL
bcc


@<TRIPOS>ATOM
      1 C            0.6790    -2.6710     0.0460 ca         1 LIG      -0.123000
      2 C1          -0.6650    -2.2770    -0.0670 ca         1 LIG      -0.121000
      3 C2          -0.9620    -0.9250    -0.0870 ca         1 LIG      -0.070300
      4 C3           0.0580    -0.0140     0.0050 ca         1 LIG      -0.063000
      5 C4          -0.4330     1.2650    -0.0320 ca         1 LIG      -0.070300
      6 C5           0.4490     2.3300     0.0490 ca         1 LIG      -0.121000
      7 C6           1.8230     2.0610     0.1660 ca         1 LIG      -0.123000
      8 C7           2.3060     0.7370     0.2010 ca         1 LIG      -0.120000
      9 C8           1.4090    -0.3440     0.1190 ca         1 LIG      -0.022000
     10 C9           1.7130    -1.7180     0.1390 ca         1 LIG      -0.120000
     11 C10         -1.9270     1.2690    -0.1600 c3         1 LIG      -0.033100
     12 C11         -2.2920    -0.2400    -0.1980 c3         1 LIG      -0.033100
     13 H            0.9270    -3.7300     0.0630 ha         1 LIG       0.129000
     14 H1          -1.4500    -3.0230    -0.1380 ha         1 LIG       0.134000
     15 H2           0.0910     3.3540     0.0230 ha         1 LIG       0.134000
     16 H3           2.5270     2.8880     0.2300 ha         1 LIG       0.129000
     17 H4           3.3740     0.5570     0.2920 ha         1 LIG       0.132000
     18 H5           2.7440    -2.0490     0.2260 ha         1 LIG       0.132000
     19 H6          -2.2430     1.7680    -1.0820 hc         1 LIG       0.057700
     20 H7          -2.3950     1.7610     0.6990 hc         1 LIG       0.057700
     21 H8          -2.9430    -0.5040     0.6420 hc         1 LIG       0.057700
     22 H9          -2.7900    -0.4960    -1.1390 hc         1 LIG       0.057700
@<TRIPOS>BOND
     1     1     2 ar  
     2     2     3 ar  
     3     3     4 ar  
     4     4     5 ar  
     5     5     6 ar  
     6     6     7 ar  
     7     7     8 ar  
     8     8     9 ar  
     9     9    10 ar  
    10     5    11 1   
    11    11    12 1   
    12    10     1 ar  
    13    12     3 1   
    14     9     4 ar  
    15     1    13 1   
    16     2    14 1   
    17     6    15 1   
    18     7    16 1   
    19     8    17 1   
    20    10    18 1   
    21    11    19 1   
    22    11    20 1   
    23    12    21 1   
    24    12    22 1   
@<TRIPOS>SUBSTRUCTURE
     1 LIG         1 TEMP              0 ****  ****    0 ROOT
