@<TRIPOS>MOLECULE
LIG
   15    15     1     0     0
SMALL
bcc


@<TRIPOS>ATOM
      1 C            0.6590     1.0210     0.0390 c3         1 LIG       0.202300
      2 N            1.0780    -0.2950    -0.4800 nh         1 LIG      -0.559700
      3 N1           1.7180    -1.0460     0.3900 n2         1 LIG       0.153600
      4 O            2.8630    -0.6190     0.5760 o          1 LIG      -0.264300
      5 C1          -0.1830    -0.8990    -0.9390 c3         1 LIG       0.202300
      6 C2          -1.2500    -0.4610     0.0570 c3         1 LIG      -0.089900
      7 C3          -0.6920     0.7970     0.7070 c3         1 LIG      -0.089900
      8 H            0.5370     1.7050    -0.8110 h1         1 LIG       0.056700
      9 H1           1.3810     1.4940     0.7160 h1         1 LIG       0.056700
     10 H2          -0.4220    -0.4940    -1.9310 h1         1 LIG       0.056700
     11 H3          -0.1410    -1.9900    -1.0510 h1         1 LIG       0.056700
     12 H4          -1.4140    -1.2330     0.8180 hc         1 LIG       0.054700
     13 H5          -2.2070    -0.2700    -0.4410 hc         1 LIG       0.054700
     14 H6          -0.5720     0.6360     1.7840 hc         1 LIG       0.054700
     15 H7          -1.3570     1.6550     0.5660 hc         1 LIG       0.054700
@<TRIPOS>BOND
     1     1     2 1   
     2     2     3 1   
     3     3     4 2   
     4     2     5 1   
     5     5     6 1   
     6     6     7 1   
     7     7     1 1   
     8     1     8 1   
     9     1     9 1   
    10     5    10 1   
    11     5    11 1   
    12     6    12 1   
    13     6    13 1   
    14     7    14 1   
    15     7    15 1   
@<TRIPOS>SUBSTRUCTURE
     1 LIG         1 TEMP              0 ****  ****    0 ROOT
