@<TRIPOS>MOLECULE
LIG
   26    25     1     0     0
SMALL
bcc


@<TRIPOS>ATOM
      1 C           -0.6430    -0.6530    -0.3880 c2         1 LIG       0.376200
      2 N            0.3620    -0.1570     0.2580 n2         1 LIG      -0.403200
      3 O            1.4420     0.0150    -0.6300 os         1 LIG      -0.243600
      4 C1           2.4940     0.6320     0.0040 c          1 LIG       0.754100
      5 O1           2.5220     1.0120     1.1670 o          1 LIG      -0.522000
      6 N1           3.5430     0.7580    -0.8710 n          1 LIG      -0.535900
      7 C2           4.8260     1.2450    -0.4440 c3         1 LIG       0.075300
      8 C3          -1.9770    -0.9490     0.2830 c3         1 LIG       0.004800
      9 S           -3.2470     0.1610    -0.4790 ss         1 LIG      -0.306200
     10 C4          -2.6430     1.7900     0.0450 c3         1 LIG      -0.040000
     11 C5          -1.9350    -0.7880     1.8050 c3         1 LIG      -0.086600
     12 C6          -2.3640    -2.3910    -0.0680 c3         1 LIG      -0.086600
     13 H           -0.5720    -0.8700    -1.4710 h4         1 LIG       0.016800
     14 H1           3.4490     0.2830    -1.7570 hn         1 LIG       0.322500
     15 H2           5.3640     0.4290     0.0450 h1         1 LIG       0.050367
     16 H3           5.3820     1.5780    -1.3240 h1         1 LIG       0.050367
     17 H4           4.7070     2.0740     0.2580 h1         1 LIG       0.050367
     18 H5          -2.7310     1.9090     1.1270 h1         1 LIG       0.067033
     19 H6          -3.2640     2.5570    -0.4270 h1         1 LIG       0.067033
     20 H7          -1.6100     1.9520    -0.2710 h1         1 LIG       0.067033
     21 H8          -2.9190    -0.9600     2.2570 hc         1 LIG       0.053533
     22 H9          -1.2410    -1.5110     2.2500 hc         1 LIG       0.053533
     23 H10         -1.5860     0.2030     2.1140 hc         1 LIG       0.053533
     24 H11         -1.6220    -3.0960     0.3260 hc         1 LIG       0.053533
     25 H12         -3.3360    -2.6670     0.3560 hc         1 LIG       0.053533
     26 H13         -2.4050    -2.5540    -1.1520 hc         1 LIG       0.053533
@<TRIPOS>BOND
     1     1     2 2   
     2     2     3 1   
     3     3     4 1   
     4     4     5 2   
     5     4     6 1   
     6     6     7 1   
     7     1     8 1   
     8     8     9 1   
     9     9    10 1   
    10     8    11 1   
    11     8    12 1   
    12     1    13 1   
    13     6    14 1   
    14     7    15 1   
    15     7    16 1   
    16     7    17 1   
    17    10    18 1   
    18    10    19 1   
    19    10    20 1   
    20    11    21 1   
    21    11    22 1   
    22    11    23 1   
    23    12    24 1   
    24    12    25 1   
    25    12    26 1   
@<TRIPOS>SUBSTRUCTURE
     1 LIG         1 TEMP              0 ****  ****    0 ROOT
