@<TRIPOS>MOLECULE
LIG
    4     3     1     0     0
SMALL
bcc


@<TRIPOS>ATOM
      1 O           -1.3620    -0.8420    -0.1380 o          1 LIG      -0.638000
      2 Cl           0.0110    -0.0020     0.4210 cl         1 LIG       0.913000
      3 O1          -0.0830     1.5930    -0.1400 o          1 LIG      -0.638000
      4 O2           1.4340    -0.7490    -0.1440 o          1 LIG      -0.638000
@<TRIPOS>BOND
     1     1     2 1   
     2     2     3 1   
     3     2     4 1   
@<TRIPOS>SUBSTRUCTURE
     1 LIG         1 TEMP              0 ****  ****    0 ROOT
