@<TRIPOS>MOLECULE
LIG
   26    29     1     0     0
SMALL
bcc


@<TRIPOS>ATOM
      1 C            3.4930     0.2080     0.3210 ca         1 LIG      -0.127000
      2 C1           2.7040     1.3320     0.5610 ca         1 LIG      -0.114000
      3 C2           1.3080     1.2650     0.4370 ca         1 LIG      -0.033000
      4 C3           0.4990     2.3840     0.6740 ca         1 LIG      -0.115000
      5 C4          -0.8900     2.3020     0.5460 ca         1 LIG      -0.115000
      6 C5          -1.5060     1.0980     0.1780 ca         1 LIG      -0.033000
      7 C6          -2.8980     0.9990     0.0460 ca         1 LIG      -0.114000
      8 C7          -3.4930    -0.2080    -0.3210 ca         1 LIG      -0.127000
      9 C8          -2.7040    -1.3320    -0.5610 ca         1 LIG      -0.114000
     10 C9          -1.3080    -1.2650    -0.4370 ca         1 LIG      -0.033000
     11 C10         -0.4990    -2.3840    -0.6740 ca         1 LIG      -0.115000
     12 C11          0.8900    -2.3020    -0.5460 ca         1 LIG      -0.115000
     13 C12          1.5060    -1.0980    -0.1780 ca         1 LIG      -0.033000
     14 C13          2.8980    -0.9990    -0.0460 ca         1 LIG      -0.114000
     15 C14          0.7040     0.0420     0.0650 ca         1 LIG      -0.015000
     16 C15         -0.7040    -0.0420    -0.0650 ca         1 LIG      -0.015000
     17 H            4.5740     0.2720     0.4210 ha         1 LIG       0.133000
     18 H1           3.1880     2.2640     0.8470 ha         1 LIG       0.134000
     19 H2           0.9440     3.3340     0.9620 ha         1 LIG       0.133000
     20 H3          -1.4880     3.1900     0.7380 ha         1 LIG       0.133000
     21 H4          -3.5320     1.8640     0.2290 ha         1 LIG       0.134000
     22 H5          -4.5740    -0.2720    -0.4210 ha         1 LIG       0.133000
     23 H6          -3.1880    -2.2640    -0.8470 ha         1 LIG       0.134000
     24 H7          -0.9440    -3.3340    -0.9620 ha         1 LIG       0.133000
     25 H8           1.4880    -3.1900    -0.7380 ha         1 LIG       0.133000
     26 H9           3.5320    -1.8640    -0.2290 ha         1 LIG       0.134000
@<TRIPOS>BOND
     1     1     2 ar  
     2     2     3 ar  
     3     3     4 ar  
     4     4     5 ar  
     5     5     6 ar  
     6     6     7 ar  
     7     7     8 ar  
     8     8     9 ar  
     9     9    10 ar  
    10    10    11 ar  
    11    11    12 ar  
    12    12    13 ar  
    13    13    14 ar  
    14    13    15 ar  
    15    15    16 ar  
    16    14     1 ar  
    17    15     3 ar  
    18    16     6 ar  
    19    16    10 ar  
    20     1    17 1   
    21     2    18 1   
    22     4    19 1   
    23     5    20 1   
    24     7    21 1   
    25     8    22 1   
    26     9    23 1   
    27    11    24 1   
    28    12    25 1   
    29    14    26 1   
@<TRIPOS>SUBSTRUCTURE
     1 LIG         1 TEMP              0 ****  ****    0 ROOT
