@<TRIPOS>MOLECULE
LIG
   68    67     1     0     0
SMALL
bcc


@<TRIPOS>ATOM
      1 C           -7.1090    -2.0260     2.2900 c3         1 LIG      -0.093600
      2 C1          -5.8530    -1.4180     2.8940 c3         1 LIG      -0.080900
      3 C2          -4.5590    -1.9490     2.2750 c3         1 LIG      -0.079900
      4 C3          -4.4010    -1.7260     0.7660 c3         1 LIG      -0.072900
      5 C4          -4.5120    -0.2610     0.2790 c3         1 LIG      -0.076700
      6 C5          -4.4700    -0.2320    -1.2620 c3         1 LIG       0.139400
      7 O           -3.1710    -0.6250    -1.7200 os         1 LIG      -0.442900
      8 C6          -3.0220    -0.6150    -3.0720 c          1 LIG       0.629600
      9 O1          -3.8920    -0.3170    -3.8780 o          1 LIG      -0.545500
     10 C7          -1.6090    -0.9850    -3.4430 c3         1 LIG      -0.126900
     11 C8          -0.8070     0.2270    -3.9070 c3         1 LIG      -0.083900
     12 C9          -0.6480     1.3480    -2.8700 c3         1 LIG      -0.083900
     13 C10          0.0370     0.9430    -1.5640 c3         1 LIG      -0.126900
     14 C11          1.5010     0.6060    -1.7320 c          1 LIG       0.629600
     15 O2           2.1620     0.7930    -2.7430 o          1 LIG      -0.545500
     16 O3           1.9770     0.0840    -0.5660 os         1 LIG      -0.442900
     17 C12          3.3720    -0.2670    -0.5580 c3         1 LIG       0.139400
     18 C13          4.2510     0.9500    -0.2150 c3         1 LIG      -0.076700
     19 C14          3.8700     1.5290     1.1650 c3         1 LIG      -0.080400
     20 C15          4.6630     2.7640     1.5670 c3         1 LIG      -0.094100
     21 C16          5.7510     0.6480    -0.4260 c3         1 LIG      -0.072900
     22 C17          6.3330    -0.6480     0.1550 c3         1 LIG      -0.079900
     23 C18          6.3480    -0.7240     1.6790 c3         1 LIG      -0.080900
     24 C19          7.1780    -1.9030     2.1670 c3         1 LIG      -0.093600
     25 C20         -3.4190     0.6210     0.9210 c3         1 LIG      -0.080400
     26 C21         -3.4590     2.0770     0.4750 c3         1 LIG      -0.094100
     27 H           -7.2330    -1.7340     1.2430 hc         1 LIG       0.033200
     28 H1          -7.9940    -1.6840     2.8370 hc         1 LIG       0.033200
     29 H2          -7.0810    -3.1190     2.3430 hc         1 LIG       0.033200
     30 H3          -5.8390    -1.6450     3.9670 hc         1 LIG       0.039200
     31 H4          -5.8980    -0.3270     2.8120 hc         1 LIG       0.039200
     32 H5          -4.4950    -3.0280     2.4670 hc         1 LIG       0.039950
     33 H6          -3.7080    -1.5050     2.8040 hc         1 LIG       0.039950
     34 H7          -3.4270    -2.1350     0.4680 hc         1 LIG       0.045700
     35 H8          -5.1510    -2.3330     0.2440 hc         1 LIG       0.045700
     36 H9          -5.4920     0.1330     0.5750 hc         1 LIG       0.061200
     37 H10         -4.6980     0.7760    -1.6280 h1         1 LIG       0.059700
     38 H11         -5.2220    -0.9190    -1.6670 h1         1 LIG       0.059700
     39 H12         -1.1190    -1.4930    -2.6060 hc         1 LIG       0.077950
     40 H13         -1.6670    -1.7270    -4.2480 hc         1 LIG       0.077950
     41 H14         -1.2940     0.6570    -4.7930 hc         1 LIG       0.065200
     42 H15          0.1810    -0.1130    -4.2370 hc         1 LIG       0.065200
     43 H16         -1.6370     1.7570    -2.6310 hc         1 LIG       0.065200
     44 H17         -0.0850     2.1670    -3.3350 hc         1 LIG       0.065200
     45 H18         -0.4740     0.0900    -1.1080 hc         1 LIG       0.077950
     46 H19         -0.0200     1.7850    -0.8640 hc         1 LIG       0.077950
     47 H20          3.4880    -1.0480     0.2000 h1         1 LIG       0.059700
     48 H21          3.6580    -0.7120    -1.5190 h1         1 LIG       0.059700
     49 H22          4.0020     1.7450    -0.9330 hc         1 LIG       0.061200
     50 H23          3.9570     0.7730     1.9490 hc         1 LIG       0.046200
     51 H24          2.8100     1.8150     1.1450 hc         1 LIG       0.046200
     52 H25          4.2370     3.2020     2.4760 hc         1 LIG       0.033367
     53 H26          4.6360     3.5240     0.7810 hc         1 LIG       0.033367
     54 H27          5.7070     2.5200     1.7820 hc         1 LIG       0.033367
     55 H28          5.9100     0.5940    -1.5120 hc         1 LIG       0.045700
     56 H29          6.3610     1.4960    -0.0970 hc         1 LIG       0.045700
     57 H30          5.8050    -1.5180    -0.2540 hc         1 LIG       0.039950
     58 H31          7.3660    -0.7280    -0.2100 hc         1 LIG       0.039950
     59 H32          6.7580     0.2000     2.1010 hc         1 LIG       0.039200
     60 H33          5.3310    -0.8470     2.0600 hc         1 LIG       0.039200
     61 H34          7.1630    -1.9500     3.2600 hc         1 LIG       0.033200
     62 H35          8.2200    -1.8110     1.8450 hc         1 LIG       0.033200
     63 H36          6.7810    -2.8480     1.7810 hc         1 LIG       0.033200
     64 H37         -3.5360     0.6110     2.0100 hc         1 LIG       0.046200
     65 H38         -2.4240     0.2100     0.7090 hc         1 LIG       0.046200
     66 H39         -3.1970     2.1830    -0.5810 hc         1 LIG       0.033367
     67 H40         -4.4530     2.5080     0.6350 hc         1 LIG       0.033367
     68 H41         -2.7380     2.6640     1.0520 hc         1 LIG       0.033367
@<TRIPOS>BOND
     1     1     2 1   
     2     2     3 1   
     3     3     4 1   
     4     4     5 1   
     5     5     6 1   
     6     6     7 1   
     7     7     8 1   
     8     8     9 2   
     9     8    10 1   
    10    10    11 1   
    11    11    12 1   
    12    12    13 1   
    13    13    14 1   
    14    14    15 2   
    15    14    16 1   
    16    16    17 1   
    17    17    18 1   
    18    18    19 1   
    19    19    20 1   
    20    18    21 1   
    21    21    22 1   
    22    22    23 1   
    23    23    24 1   
    24     5    25 1   
    25    25    26 1   
    26     1    27 1   
    27     1    28 1   
    28     1    29 1   
    29     2    30 1   
    30     2    31 1   
    31     3    32 1   
    32     3    33 1   
    33     4    34 1   
    34     4    35 1   
    35     5    36 1   
    36     6    37 1   
    37     6    38 1   
    38    10    39 1   
    39    10    40 1   
    40    11    41 1   
    41    11    42 1   
    42    12    43 1   
    43    12    44 1   
    44    13    45 1   
    45    13    46 1   
    46    17    47 1   
    47    17    48 1   
    48    18    49 1   
    49    19    50 1   
    50    19    51 1   
    51    20    52 1   
    52    20    53 1   
    53    20    54 1   
    54    21    55 1   
    55    21    56 1   
    56    22    57 1   
    57    22    58 1   
    58    23    59 1   
    59    23    60 1   
    60    24    61 1   
    61    24    62 1   
    62    24    63 1   
    63    25    64 1   
    64    25    65 1   
    65    26    66 1   
    66    26    67 1   
    67    26    68 1   
@<TRIPOS>SUBSTRUCTURE
     1 LIG         1 TEMP              0 ****  ****    0 ROOT
