@<TRIPOS>MOLECULE
LIG
   12    12     1     0     0
SMALL
bcc


@<TRIPOS>ATOM
      1 Cl           1.2140     2.8980    -0.2270 cl         1 LIG      -0.026400
      2 C            0.5420     1.2950    -0.1020 ca         1 LIG       0.026400
      3 C1           1.3950     0.1760    -0.0590 ca         1 LIG       0.026400
      4 Cl1          3.1230     0.3930    -0.1330 cl         1 LIG      -0.026400
      5 C2           0.8530    -1.1190     0.0420 ca         1 LIG       0.026400
      6 Cl2          1.9080    -2.5050     0.0940 cl         1 LIG      -0.026400
      7 C3          -0.5420    -1.2950     0.1020 ca         1 LIG       0.026400
      8 Cl3         -1.2140    -2.8980     0.2270 cl         1 LIG      -0.026400
      9 C4          -1.3950    -0.1760     0.0590 ca         1 LIG       0.026400
     10 Cl4         -3.1230    -0.3930     0.1330 cl         1 LIG      -0.026400
     11 C5          -0.8530     1.1190    -0.0420 ca         1 LIG       0.026400
     12 Cl5         -1.9080     2.5050    -0.0940 cl         1 LIG      -0.026400
@<TRIPOS>BOND
     1     1     2 1   
     2     2     3 ar  
     3     3     4 1   
     4     3     5 ar  
     5     5     6 1   
     6     5     7 ar  
     7     7     8 1   
     8     7     9 ar  
     9     9    10 1   
    10     9    11 ar  
    11    11    12 1   
    12    11     2 ar  
@<TRIPOS>SUBSTRUCTURE
     1 LIG         1 TEMP              0 ****  ****    0 ROOT
