@<TRIPOS>MOLECULE
LIG
   47    48     1     0     0
SMALL
bcc


@<TRIPOS>ATOM
      1 C           -2.8700     0.4330    -1.4540 c2         1 LIG      -0.161200
      2 C1          -3.6900     1.4180    -1.0400 c2         1 LIG      -0.099400
      3 C2          -3.6270     2.0410     0.3270 c3         1 LIG      -0.062400
      4 C3          -4.7600     1.9750    -1.9380 c3         1 LIG      -0.062400
      5 C4          -1.7880    -0.2010    -0.6870 cx         1 LIG      -0.051500
      6 C5          -1.4230    -1.6410    -0.9900 cx         1 LIG      -0.189700
      7 C6          -0.0100    -2.0870    -1.0280 c          1 LIG       0.672100
      8 O            0.3210    -3.1870    -0.6150 o          1 LIG      -0.547000
      9 O1           0.7990    -1.1470    -1.5710 os         1 LIG      -0.440900
     10 C7           2.2020    -1.4290    -1.5450 c3         1 LIG       0.181700
     11 C8           2.8740    -0.4040    -0.6610 ca         1 LIG      -0.129300
     12 C9           3.0290     0.9020    -1.1590 ca         1 LIG      -0.104000
     13 C10          3.6240     1.9020    -0.3880 ca         1 LIG      -0.144000
     14 C11          4.0610     1.6250     0.9070 ca         1 LIG      -0.063300
     15 C12          4.7250     2.6920     1.7240 c3         1 LIG      -0.055800
     16 C13          3.9130     0.3260     1.4100 ca         1 LIG      -0.140000
     17 C14          3.3130    -0.6920     0.6480 ca         1 LIG      -0.040300
     18 C15          3.1650    -2.0600     1.2550 c3         1 LIG      -0.069800
     19 C16         -2.0880    -1.2860     0.3340 cx         1 LIG      -0.059000
     20 C17         -1.2660    -1.2740     1.6010 c3         1 LIG      -0.074100
     21 C18         -3.5010    -1.7750     0.5460 c3         1 LIG      -0.074100
     22 H           -2.9960     0.0590    -2.4700 ha         1 LIG       0.123000
     23 H1          -4.5920     1.9310     0.8340 hc         1 LIG       0.043533
     24 H2          -2.8650     1.5870     0.9690 hc         1 LIG       0.043533
     25 H3          -3.3990     3.1080     0.2460 hc         1 LIG       0.043533
     26 H4          -4.5990     3.0450    -2.1010 hc         1 LIG       0.043533
     27 H5          -5.7450     1.8360    -1.4800 hc         1 LIG       0.043533
     28 H6          -4.7750     1.4850    -2.9170 hc         1 LIG       0.043533
     29 H7          -0.9670     0.4800    -0.4680 hc         1 LIG       0.102700
     30 H8          -2.0350    -2.1750    -1.7120 hc         1 LIG       0.112700
     31 H9           2.5790    -1.3260    -2.5700 h1         1 LIG       0.072200
     32 H10          2.4380    -2.4540    -1.2430 h1         1 LIG       0.072200
     33 H11          2.6740     1.1480    -2.1580 ha         1 LIG       0.134000
     34 H12          3.7350     2.9000    -0.8050 ha         1 LIG       0.131000
     35 H13          4.2410     3.6600     1.5610 hc         1 LIG       0.044700
     36 H14          4.6540     2.4710     2.7940 hc         1 LIG       0.044700
     37 H15          5.7800     2.7710     1.4500 hc         1 LIG       0.044700
     38 H16          4.2620     0.1060     2.4180 ha         1 LIG       0.132000
     39 H17          2.1150    -2.3660     1.2560 hc         1 LIG       0.054033
     40 H18          3.5050    -2.0780     2.2940 hc         1 LIG       0.054033
     41 H19          3.7620    -2.7880     0.7000 hc         1 LIG       0.054033
     42 H20         -1.7520    -0.6560     2.3620 hc         1 LIG       0.046367
     43 H21         -0.2620    -0.8690     1.4440 hc         1 LIG       0.046367
     44 H22         -1.1620    -2.2890     1.9950 hc         1 LIG       0.046367
     45 H23         -4.0530    -1.0850     1.1890 hc         1 LIG       0.046367
     46 H24         -3.4890    -2.7530     1.0330 hc         1 LIG       0.046367
     47 H25         -4.0560    -1.8810    -0.3890 hc         1 LIG       0.046367
@<TRIPOS>BOND
     1     1     2 2   
     2     2     3 1   
     3     2     4 1   
     4     1     5 1   
     5     5     6 1   
     6     6     7 1   
     7     7     8 2   
     8     7     9 1   
     9     9    10 1   
    10    10    11 1   
    11    11    12 ar  
    12    12    13 ar  
    13    13    14 ar  
    14    14    15 1   
    15    14    16 ar  
    16    16    17 ar  
    17    17    18 1   
    18     6    19 1   
    19    19    20 1   
    20    19    21 1   
    21    19     5 1   
    22    17    11 ar  
    23     1    22 1   
    24     3    23 1   
    25     3    24 1   
    26     3    25 1   
    27     4    26 1   
    28     4    27 1   
    29     4    28 1   
    30     5    29 1   
    31     6    30 1   
    32    10    31 1   
    33    10    32 1   
    34    12    33 1   
    35    13    34 1   
    36    15    35 1   
    37    15    36 1   
    38    15    37 1   
    39    16    38 1   
    40    18    39 1   
    41    18    40 1   
    42    18    41 1   
    43    20    42 1   
    44    20    43 1   
    45    20    44 1   
    46    21    45 1   
    47    21    46 1   
    48    21    47 1   
@<TRIPOS>SUBSTRUCTURE
     1 LIG         1 TEMP              0 ****  ****    0 ROOT
