@<TRIPOS>MOLECULE
LIG
   16    16     1     0     0
SMALL
bcc


@<TRIPOS>ATOM
      1 C            1.3190     0.8930    -0.3060 ca         1 LIG      -0.135000
      2 C1           0.2570     1.7860    -0.4080 ca         1 LIG       0.041400
      3 Cl           0.5450     3.4180    -0.8750 cl         1 LIG      -0.151400
      4 C2          -1.0440     1.3640    -0.1490 ca         1 LIG      -0.207000
      5 C3          -1.2840     0.0490     0.2620 ca         1 LIG       0.110600
      6 N           -2.6390    -0.3680     0.4070 nh         1 LIG      -0.804200
      7 C4          -0.2110    -0.8720     0.3290 ca         1 LIG      -0.014600
      8 Cl1         -0.5710    -2.4970     0.8280 cl         1 LIG      -0.110400
      9 C5           1.0950    -0.4530     0.0440 ca         1 LIG      -0.055600
     10 C6           2.2700    -1.3750     0.0780 c          1 LIG       0.919200
     11 O            2.2100    -2.4160    -0.6440 o          1 LIG      -0.808300
     12 O1           3.2540    -0.9980     0.7860 o          1 LIG      -0.808300
     13 H            2.3380     1.2170    -0.5090 ha         1 LIG       0.154000
     14 H1          -1.8740     2.0570    -0.2450 ha         1 LIG       0.128000
     15 H2          -2.6450    -1.2500     0.9240 hn         1 LIG       0.371300
     16 H3          -3.0210    -0.5540    -0.5190 hn         1 LIG       0.371300
@<TRIPOS>BOND
     1     1     2 ar  
     2     2     3 1   
     3     2     4 ar  
     4     4     5 ar  
     5     5     6 1   
     6     5     7 ar  
     7     7     8 1   
     8     7     9 ar  
     9     9    10 1   
    10    10    11 1   
    11    10    12 1   
    12     9     1 ar  
    13     1    13 1   
    14     4    14 1   
    15     6    15 1   
    16     6    16 1   
@<TRIPOS>SUBSTRUCTURE
     1 LIG         1 TEMP              0 ****  ****    0 ROOT
