@<TRIPOS>MOLECULE
LIG
   23    24     1     0     0
SMALL
bcc


@<TRIPOS>ATOM
      1 C           -3.6650    -0.0260     1.2150 ca         1 LIG      -0.124500
      2 C1          -4.0630    -0.3240    -0.1050 ca         1 LIG      -0.124500
      3 C2          -3.1170    -0.5150    -1.1180 ca         1 LIG      -0.121500
      4 C3          -1.7940    -0.3690    -0.7760 ca         1 LIG      -0.041200
      5 C4          -1.3970    -0.0730     0.5400 ca         1 LIG      -0.041200
      6 C5          -2.3120     0.0870     1.5530 ca         1 LIG      -0.121500
      7 N           -0.0010    -0.1060     0.5710 na         1 LIG      -0.305300
      8 C6           0.4740    -0.2560    -0.7330 cc         1 LIG       0.652300
      9 N1           1.6560    -0.0920    -1.2200 nf         1 LIG      -0.741100
     10 C7           2.6550     0.2680    -0.3630 c          1 LIG       0.779500
     11 O            2.5250     0.6980     0.7770 o          1 LIG      -0.641000
     12 O1           3.8550     0.0960    -0.9820 os         1 LIG      -0.394900
     13 C8           4.9800     0.4520    -0.1820 c3         1 LIG       0.130700
     14 N2          -0.6300    -0.5770    -1.5240 na         1 LIG      -0.305300
     15 H           -4.4240     0.0990     1.9850 ha         1 LIG       0.140000
     16 H1          -5.1220    -0.4240    -0.3340 ha         1 LIG       0.140000
     17 H2          -3.4200    -0.7760    -2.1250 ha         1 LIG       0.147500
     18 H3          -2.0040     0.2840     2.5730 ha         1 LIG       0.147500
     19 H4           0.5460     0.3940     1.2590 hn         1 LIG       0.338200
     20 H5           5.8850     0.2710    -0.7700 h1         1 LIG       0.050033
     21 H6           4.9460     1.5140     0.0790 h1         1 LIG       0.050033
     22 H7           5.0240    -0.1690     0.7190 h1         1 LIG       0.050033
     23 H8          -0.5970    -0.4540    -2.5220 hn         1 LIG       0.338200
@<TRIPOS>BOND
     1     1     2 ar  
     2     2     3 ar  
     3     3     4 ar  
     4     4     5 ar  
     5     5     6 ar  
     6     5     7 1   
     7     7     8 1   
     8     8     9 2   
     9     9    10 1   
    10    10    11 2   
    11    10    12 1   
    12    12    13 1   
    13     8    14 1   
    14     6     1 ar  
    15    14     4 1   
    16     1    15 1   
    17     2    16 1   
    18     3    17 1   
    19     6    18 1   
    20     7    19 1   
    21    13    20 1   
    22    13    21 1   
    23    13    22 1   
    24    14    23 1   
@<TRIPOS>SUBSTRUCTURE
     1 LIG         1 TEMP              0 ****  ****    0 ROOT
