@<TRIPOS>MOLECULE
LIG
    6     5     1     0     0
SMALL
bcc


@<TRIPOS>ATOM
      1 C           -0.6460    -0.2670    -0.0970 c2         1 LIG      -0.068600
      2 Cl          -1.8650    -0.0250     1.0850 cl         1 LIG      -0.065400
      3 C1           0.6090     0.1850    -0.0300 c2         1 LIG       0.062800
      4 Cl1          1.2170     1.1090     1.2950 cl         1 LIG      -0.051400
      5 Cl2          1.7070    -0.1570    -1.3230 cl         1 LIG      -0.051400
      6 H           -1.0210    -0.8460    -0.9310 h4         1 LIG       0.175000
@<TRIPOS>BOND
     1     1     2 1   
     2     1     3 2   
     3     3     4 1   
     4     3     5 1   
     5     1     6 1   
@<TRIPOS>SUBSTRUCTURE
     1 LIG         1 TEMP              0 ****  ****    0 ROOT
