@<TRIPOS>MOLECULE
LIG
   30    33     1     0     0
SMALL
bcc


@<TRIPOS>ATOM
      1 C           -4.7460    -0.0560    -0.3750 ca         1 LIG      -0.126000
      2 C1          -4.3770     1.2810    -0.4790 ca         1 LIG      -0.126000
      3 C2          -3.0280     1.6370    -0.4230 ca         1 LIG      -0.117000
      4 C3          -2.0310     0.6600    -0.2620 ca         1 LIG      -0.034000
      5 C4          -0.6650     0.9990    -0.2040 ca         1 LIG      -0.108000
      6 C5           0.3640     0.0360    -0.0420 ca         1 LIG      -0.016000
      7 C6          -0.0440    -1.3160     0.0600 ca         1 LIG      -0.033000
      8 C7           0.9110    -2.3230     0.2210 ca         1 LIG      -0.117000
      9 C8           2.2680    -2.0180     0.2820 ca         1 LIG      -0.115000
     10 C9           2.7090    -0.6970     0.1850 ca         1 LIG      -0.035000
     11 C10          4.0860    -0.4230     0.2500 ca         1 LIG      -0.118000
     12 C11          4.5650     0.8810     0.1570 ca         1 LIG      -0.127000
     13 C12          3.6700     1.9270    -0.0040 ca         1 LIG      -0.128000
     14 C13          2.2970     1.6670    -0.0700 ca         1 LIG      -0.119000
     15 C14          1.7690     0.3530     0.0210 ca         1 LIG      -0.019000
     16 C15         -1.4060    -1.6610     0.0030 ca         1 LIG      -0.107000
     17 C16         -2.4050    -0.6910    -0.1570 ca         1 LIG      -0.034000
     18 C17         -3.7660    -1.0370    -0.2150 ca         1 LIG      -0.117000
     19 H           -5.7950    -0.3370    -0.4180 ha         1 LIG       0.133000
     20 H1          -5.1360     2.0480    -0.6030 ha         1 LIG       0.132000
     21 H2          -2.7590     2.6880    -0.5060 ha         1 LIG       0.132000
     22 H3          -0.4090     2.0520    -0.2880 ha         1 LIG       0.134000
     23 H4           0.6090    -3.3660     0.3010 ha         1 LIG       0.133000
     24 H5           2.9790    -2.8320     0.4080 ha         1 LIG       0.133000
     25 H6           4.8030    -1.2320     0.3760 ha         1 LIG       0.133000
     26 H7           5.6320     1.0760     0.2090 ha         1 LIG       0.133000
     27 H8           4.0320     2.9490    -0.0780 ha         1 LIG       0.132000
     28 H9           1.6410     2.5230    -0.1970 ha         1 LIG       0.132000
     29 H10         -1.6960    -2.7070     0.0840 ha         1 LIG       0.134000
     30 H11         -4.0730    -2.0780    -0.1350 ha         1 LIG       0.133000
@<TRIPOS>BOND
     1     1     2 ar  
     2     2     3 ar  
     3     3     4 ar  
     4     4     5 ar  
     5     5     6 ar  
     6     6     7 ar  
     7     7     8 ar  
     8     8     9 ar  
     9     9    10 ar  
    10    10    11 ar  
    11    11    12 ar  
    12    12    13 ar  
    13    13    14 ar  
    14    14    15 ar  
    15     7    16 ar  
    16    16    17 ar  
    17    17    18 ar  
    18    18     1 ar  
    19    17     4 ar  
    20    15     6 ar  
    21    15    10 ar  
    22     1    19 1   
    23     2    20 1   
    24     3    21 1   
    25     5    22 1   
    26     8    23 1   
    27     9    24 1   
    28    11    25 1   
    29    12    26 1   
    30    13    27 1   
    31    14    28 1   
    32    16    29 1   
    33    18    30 1   
@<TRIPOS>SUBSTRUCTURE
     1 LIG         1 TEMP              0 ****  ****    0 ROOT
