@<TRIPOS>MOLECULE
LIG
   38    37     1     0     0
SMALL
bcc


@<TRIPOS>ATOM
      1 C           -4.3990     0.6800    -0.2570 c3         1 LIG       0.118200
      2 O           -3.0950     0.4810     0.2530 os         1 LIG      -0.474700
      3 P           -2.6420    -1.0070     0.7230 p5         1 LIG       0.867200
      4 S           -2.6280    -2.3010    -0.7360 s          1 LIG      -0.482000
      5 O1          -3.8180    -1.3000     1.8080 os         1 LIG      -0.474700
      6 C1          -3.8080    -2.5170     2.5300 c3         1 LIG       0.118200
      7 S1          -0.8790    -0.7180     1.8390 ss         1 LIG      -0.409500
      8 C2           0.4110    -0.3800     0.5920 c3         1 LIG       0.122400
      9 C3           0.0640     0.8760    -0.1960 c          1 LIG       0.633100
     10 O2           0.1540     2.0150     0.2440 o          1 LIG      -0.515000
     11 O3          -0.3200     0.5490    -1.4600 os         1 LIG      -0.441900
     12 C4          -0.4460     1.6430    -2.3810 c3         1 LIG       0.141400
     13 C5          -1.8470     2.2190    -2.3440 c3         1 LIG      -0.132100
     14 C6           1.7480    -0.1890     1.3090 c3         1 LIG      -0.131400
     15 C7           2.8750    -0.0570     0.3160 c          1 LIG       0.634100
     16 O4           2.7600    -0.1780    -0.8940 o          1 LIG      -0.539000
     17 O5           4.0390     0.1960     0.9770 os         1 LIG      -0.436900
     18 C8           5.2070     0.3440     0.1550 c3         1 LIG       0.139400
     19 C9           5.8310    -1.0130    -0.1120 c3         1 LIG      -0.128100
     20 H           -5.1530     0.3650     0.4690 h1         1 LIG       0.070367
     21 H1          -4.5320     0.1360    -1.1940 h1         1 LIG       0.070367
     22 H2          -4.5340     1.7470    -0.4530 h1         1 LIG       0.070367
     23 H3          -4.0970    -3.3480     1.8770 h1         1 LIG       0.070367
     24 H4          -4.5390    -2.4420     3.3410 h1         1 LIG       0.070367
     25 H5          -2.8230    -2.7100     2.9650 h1         1 LIG       0.070367
     26 H6           0.4740    -1.2380    -0.0860 h1         1 LIG       0.144700
     27 H7          -0.2400     1.2440    -3.3800 h1         1 LIG       0.068200
     28 H8           0.3060     2.4150    -2.1830 h1         1 LIG       0.068200
     29 H9          -2.0760     2.6280    -1.3550 hc         1 LIG       0.052700
     30 H10         -1.9580     3.0170    -3.0850 hc         1 LIG       0.052700
     31 H11         -2.5870     1.4410    -2.5530 hc         1 LIG       0.052700
     32 H12          1.9730    -1.0580     1.9390 hc         1 LIG       0.122700
     33 H13          1.7390     0.7140     1.9330 hc         1 LIG       0.122700
     34 H14          4.9730     0.8680    -0.7780 h1         1 LIG       0.064700
     35 H15          5.9120     0.9710     0.7100 h1         1 LIG       0.064700
     36 H16          5.1440    -1.6560    -0.6710 hc         1 LIG       0.051367
     37 H17          6.0540    -1.5270     0.8290 hc         1 LIG       0.051367
     38 H18          6.7550    -0.9090    -0.6870 hc         1 LIG       0.051367
@<TRIPOS>BOND
     1     1     2 1   
     2     2     3 1   
     3     3     4 2   
     4     3     5 1   
     5     5     6 1   
     6     3     7 1   
     7     7     8 1   
     8     8     9 1   
     9     9    10 2   
    10     9    11 1   
    11    11    12 1   
    12    12    13 1   
    13     8    14 1   
    14    14    15 1   
    15    15    16 2   
    16    15    17 1   
    17    17    18 1   
    18    18    19 1   
    19     1    20 1   
    20     1    21 1   
    21     1    22 1   
    22     6    23 1   
    23     6    24 1   
    24     6    25 1   
    25     8    26 1   
    26    12    27 1   
    27    12    28 1   
    28    13    29 1   
    29    13    30 1   
    30    13    31 1   
    31    14    32 1   
    32    14    33 1   
    33    18    34 1   
    34    18    35 1   
    35    19    36 1   
    36    19    37 1   
    37    19    38 1   
@<TRIPOS>SUBSTRUCTURE
     1 LIG         1 TEMP              0 ****  ****    0 ROOT
