@<TRIPOS>MOLECULE
LIG
   15    15     1     0     0
SMALL
bcc


@<TRIPOS>ATOM
      1 C           -2.0720     0.3640    -0.0570 ca         1 LIG      -0.127000
      2 C1          -1.6120    -0.9470     0.0320 ca         1 LIG      -0.126000
      3 C2          -0.2400    -1.2070     0.0700 ca         1 LIG      -0.124000
      4 C3           0.6910    -0.1580     0.0210 ca         1 LIG      -0.066300
      5 C4           2.1600    -0.4690     0.0650 c3         1 LIG      -0.056800
      6 C5           0.2130     1.1590    -0.0680 ca         1 LIG       0.014400
      7 Cl           1.2900     2.5090    -0.1330 cl         1 LIG      -0.099400
      8 C6          -1.1600     1.4170    -0.1070 ca         1 LIG      -0.121000
      9 H           -3.1400     0.5660    -0.0880 ha         1 LIG       0.136000
     10 H1          -2.3210    -1.7710     0.0700 ha         1 LIG       0.135000
     11 H2           0.0980    -2.2390     0.1400 ha         1 LIG       0.136000
     12 H3           2.6540    -0.1130    -0.8450 hc         1 LIG       0.051033
     13 H4           2.6240    -0.0030     0.9410 hc         1 LIG       0.051033
     14 H5           2.3400    -1.5470     0.1350 hc         1 LIG       0.051033
     15 H6          -1.5250     2.4390    -0.1760 ha         1 LIG       0.146000
@<TRIPOS>BOND
     1     1     2 ar  
     2     2     3 ar  
     3     3     4 ar  
     4     4     5 1   
     5     4     6 ar  
     6     6     7 1   
     7     6     8 ar  
     8     8     1 ar  
     9     1     9 1   
    10     2    10 1   
    11     3    11 1   
    12     5    12 1   
    13     5    13 1   
    14     5    14 1   
    15     8    15 1   
@<TRIPOS>SUBSTRUCTURE
     1 LIG         1 TEMP              0 ****  ****    0 ROOT
