@<TRIPOS>MOLECULE
LIG
   12    12     1     0     0
SMALL
bcc


@<TRIPOS>ATOM
      1 C           -1.3890     0.4010     0.0390 ca         1 LIG      -0.129000
      2 C1          -1.0540    -0.9540     0.0490 ca         1 LIG      -0.122000
      3 C2           0.2860    -1.3420     0.0110 ca         1 LIG      -0.124000
      4 C3           1.2860    -0.3710    -0.0360 ca         1 LIG       0.017400
      5 Cl           2.9390    -0.8490    -0.0830 cl         1 LIG      -0.097400
      6 C4           0.9560     0.9830    -0.0460 ca         1 LIG      -0.124000
      7 C5          -0.3850     1.3690    -0.0080 ca         1 LIG      -0.122000
      8 H           -2.4330     0.7030     0.0690 ha         1 LIG       0.135000
      9 H1          -1.8370    -1.7070     0.0860 ha         1 LIG       0.137000
     10 H2           0.5430    -2.3970     0.0180 ha         1 LIG       0.147000
     11 H3           1.7350     1.7400    -0.0830 ha         1 LIG       0.147000
     12 H4          -0.6470     2.4250    -0.0150 ha         1 LIG       0.137000
@<TRIPOS>BOND
     1     1     2 ar  
     2     2     3 ar  
     3     3     4 ar  
     4     4     5 1   
     5     4     6 ar  
     6     6     7 ar  
     7     7     1 ar  
     8     1     8 1   
     9     2     9 1   
    10     3    10 1   
    11     6    11 1   
    12     7    12 1   
@<TRIPOS>SUBSTRUCTURE
     1 LIG         1 TEMP              0 ****  ****    0 ROOT
