@<TRIPOS>MOLECULE
LIG
   23    22     1     0     0
SMALL
bcc


@<TRIPOS>ATOM
      1 C            3.1530     0.0170     0.5600 c3         1 LIG      -0.094600
      2 C1           2.0390    -0.8840     1.0770 c3         1 LIG      -0.096400
      3 C2           0.6430    -0.2490     0.9550 c3         1 LIG       0.202300
      4 N            0.2560     0.0730    -0.4270 nh         1 LIG      -0.557700
      5 N1           0.0890    -0.9860    -1.1880 n2         1 LIG       0.147600
      6 O            0.0290    -0.6790    -2.3840 o          1 LIG      -0.260300
      7 C3          -0.8170     1.0880    -0.4810 c3         1 LIG       0.202300
      8 C4          -2.1260     0.8020     0.2780 c3         1 LIG      -0.096400
      9 C5          -2.9200    -0.3820    -0.2510 c3         1 LIG      -0.094600
     10 H            3.1470     0.9820     1.0760 hc         1 LIG       0.037700
     11 H1           3.0570     0.1980    -0.5150 hc         1 LIG       0.037700
     12 H2           4.1270    -0.4530     0.7330 hc         1 LIG       0.037700
     13 H3           2.0740    -1.8460     0.5520 hc         1 LIG       0.047950
     14 H4           2.2280    -1.1010     2.1350 hc         1 LIG       0.047950
     15 H5           0.6570     0.6690     1.5570 h1         1 LIG       0.057450
     16 H6          -0.0920    -0.9190     1.4230 h1         1 LIG       0.057450
     17 H7          -0.4010     2.0190    -0.0720 h1         1 LIG       0.057450
     18 H8          -1.0590     1.3400    -1.5230 h1         1 LIG       0.057450
     19 H9          -1.9300     0.6620     1.3470 hc         1 LIG       0.047950
     20 H10         -2.7570     1.6970     0.2020 hc         1 LIG       0.047950
     21 H11         -3.0860    -0.2960    -1.3290 hc         1 LIG       0.037700
     22 H12         -2.4140    -1.3290    -0.0480 hc         1 LIG       0.037700
     23 H13         -3.8980    -0.4230     0.2380 hc         1 LIG       0.037700
@<TRIPOS>BOND
     1     1     2 1   
     2     2     3 1   
     3     3     4 1   
     4     4     5 1   
     5     5     6 2   
     6     4     7 1   
     7     7     8 1   
     8     8     9 1   
     9     1    10 1   
    10     1    11 1   
    11     1    12 1   
    12     2    13 1   
    13     2    14 1   
    14     3    15 1   
    15     3    16 1   
    16     7    17 1   
    17     7    18 1   
    18     8    19 1   
    19     8    20 1   
    20     9    21 1   
    21     9    22 1   
    22     9    23 1   
@<TRIPOS>SUBSTRUCTURE
     1 LIG         1 TEMP              0 ****  ****    0 ROOT
