@<TRIPOS>MOLECULE
LIG
   10     9     1     0     0
SMALL
bcc


@<TRIPOS>ATOM
      1 Cl           1.7110     1.7410    -0.4790 cl         1 LIG      -0.032900
      2 C            1.4660     0.0590    -0.8450 c2         1 LIG       0.096800
      3 Cl1          2.5370    -0.5970    -2.0430 cl         1 LIG      -0.032900
      4 C1           0.5160    -0.6730    -0.2320 ce         1 LIG       0.009400
      5 Cl2          0.2760    -2.3630    -0.5960 cl         1 LIG      -0.041400
      6 C2          -0.4030    -0.1490     0.7670 ce         1 LIG       0.009400
      7 Cl3          0.1090    -0.4280     2.4120 cl         1 LIG      -0.041400
      8 C3          -1.5440     0.5040     0.4780 c2         1 LIG       0.096800
      9 Cl4         -2.0580     0.7780    -1.1600 cl         1 LIG      -0.032900
     10 Cl5         -2.6100     1.1270     1.6980 cl         1 LIG      -0.032900
@<TRIPOS>BOND
     1     1     2 1   
     2     2     3 1   
     3     2     4 2   
     4     4     5 1   
     5     4     6 1   
     6     6     7 1   
     7     6     8 2   
     8     8     9 1   
     9     8    10 1   
@<TRIPOS>SUBSTRUCTURE
     1 LIG         1 TEMP              0 ****  ****    0 ROOT
