@<TRIPOS>MOLECULE
LIG
   10     9     1     0     0
SMALL
bcc


@<TRIPOS>ATOM
      1 C           -1.8060    -0.1220     0.1140 c2         1 LIG      -0.131000
      2 C1          -0.5590    -0.2140    -0.3650 ce         1 LIG      -0.239200
      3 C2           0.5900     0.2410     0.4500 c          1 LIG       0.656300
      4 O            0.4900     0.7140     1.5720 o          1 LIG      -0.619100
      5 N            1.7920     0.0860    -0.1640 n          1 LIG      -0.676000
      6 H           -2.6560    -0.4520    -0.4730 ha         1 LIG       0.129500
      7 H1          -2.0050     0.2850     1.1020 ha         1 LIG       0.129500
      8 H2          -0.3710    -0.6210    -1.3490 ha         1 LIG       0.128000
      9 H3           1.9110    -0.3000    -1.0870 hn         1 LIG       0.311000
     10 H4           2.6130     0.3810     0.3490 hn         1 LIG       0.311000
@<TRIPOS>BOND
     1     1     2 2   
     2     2     3 1   
     3     3     4 2   
     4     3     5 1   
     5     1     6 1   
     6     1     7 1   
     7     2     8 1   
     8     5     9 1   
     9     5    10 1   
@<TRIPOS>SUBSTRUCTURE
     1 LIG         1 TEMP              0 ****  ****    0 ROOT
