@<TRIPOS>MOLECULE
LIG
   27    31     1     0     0
SMALL
bcc


@<TRIPOS>ATOM
      1 C           -2.3650    -0.3340    -0.0680 c3         1 LIG      -0.089400
      2 C1          -1.1880    -1.2790    -0.4690 c3         1 LIG      -0.054700
      3 C2          -0.7790    -0.6970    -1.8080 cx         1 LIG       0.049100
      4 O           -1.7930    -0.0150    -2.5580 op         1 LIG      -0.385600
      5 C3          -0.9910     0.7730    -1.6690 cx         1 LIG       0.049100
      6 C4          -1.5100     0.9590    -0.2560 c3         1 LIG      -0.054700
      7 C5          -0.4310     0.6600     0.8170 c3         1 LIG      -0.073700
      8 C6          -0.2070    -0.8940     0.6690 c3         1 LIG      -0.073700
      9 C7           1.3480    -1.0160     0.6540 c3         1 LIG       0.093600
     10 Cl           1.9030    -2.6430     1.0030 cl         1 LIG      -0.081400
     11 C8           1.9400    -0.3460    -0.5660 c2         1 LIG      -0.031800
     12 Cl1          2.8070    -1.1520    -1.7810 cl         1 LIG      -0.009400
     13 C9           1.7500     0.9740    -0.4400 c2         1 LIG      -0.031800
     14 Cl2          2.3240     2.2000    -1.4620 cl         1 LIG      -0.009400
     15 C10          1.0270     1.2140     0.8660 c3         1 LIG       0.093600
     16 Cl3          1.1140     2.8370     1.5240 cl         1 LIG      -0.081400
     17 C11          1.7440     0.0890     1.7120 c3         1 LIG       0.127800
     18 Cl4          1.0810    -0.1650     3.3690 cl         1 LIG      -0.092900
     19 Cl5          3.5260     0.3230     1.9420 cl         1 LIG      -0.092900
     20 H           -2.7210    -0.4830     0.9580 hc         1 LIG       0.071700
     21 H1          -3.2230    -0.3940    -0.7460 hc         1 LIG       0.071700
     22 H2          -1.4500    -2.3380    -0.5030 hc         1 LIG       0.091700
     23 H3           0.0210    -1.1590    -2.3550 h1         1 LIG       0.121700
     24 H4          -0.3670     1.5330    -2.0990 h1         1 LIG       0.121700
     25 H5          -2.0590     1.8900    -0.1010 hc         1 LIG       0.091700
     26 H6          -0.9110     0.8490     1.7900 hc         1 LIG       0.087700
     27 H7          -0.5890    -1.3850     1.5770 hc         1 LIG       0.087700
@<TRIPOS>BOND
     1     1     2 1   
     2     2     3 1   
     3     3     4 1   
     4     4     5 1   
     5     5     6 1   
     6     6     7 1   
     7     7     8 1   
     8     8     9 1   
     9     9    10 1   
    10     9    11 1   
    11    11    12 1   
    12    11    13 2   
    13    13    14 1   
    14    13    15 1   
    15    15    16 1   
    16    15    17 1   
    17    17    18 1   
    18    17    19 1   
    19     6     1 1   
    20    15     7 1   
    21     8     2 1   
    22    17     9 1   
    23     5     3 1   
    24     1    20 1   
    25     1    21 1   
    26     2    22 1   
    27     3    23 1   
    28     5    24 1   
    29     6    25 1   
    30     7    26 1   
    31     8    27 1   
@<TRIPOS>SUBSTRUCTURE
     1 LIG         1 TEMP              0 ****  ****    0 ROOT
