@<TRIPOS>MOLECULE
LIG
   13    12     1     0     0
SMALL
bcc


@<TRIPOS>ATOM
      1 C            1.5520     0.6460    -0.4330 c3         1 LIG      -0.203100
      2 C1           0.7780    -0.6190    -0.1750 c          1 LIG       0.565100
      3 O            1.3390    -1.6460     0.2090 o          1 LIG      -0.531100
      4 C2          -0.7210    -0.5700    -0.3740 c3         1 LIG      -0.185400
      5 C3          -1.4080     0.1150     0.7900 c3         1 LIG      -0.087100
      6 H            1.3000     1.3960     0.3200 hc         1 LIG       0.063367
      7 H1           1.3210     1.0220    -1.4330 hc         1 LIG       0.063367
      8 H2           2.6240     0.4370    -0.3810 hc         1 LIG       0.063367
      9 H3          -0.9380    -0.0560    -1.3160 hc         1 LIG       0.063200
     10 H4          -1.0880    -1.5970    -0.4770 hc         1 LIG       0.063200
     11 H5          -2.4940     0.0910     0.6590 hc         1 LIG       0.041367
     12 H6          -1.0990     1.1610     0.8740 hc         1 LIG       0.041367
     13 H7          -1.1650    -0.3810     1.7360 hc         1 LIG       0.041367
@<TRIPOS>BOND
     1     1     2 1   
     2     2     3 2   
     3     2     4 1   
     4     4     5 1   
     5     1     6 1   
     6     1     7 1   
     7     1     8 1   
     8     4     9 1   
     9     4    10 1   
    10     5    11 1   
    11     5    12 1   
    12     5    13 1   
@<TRIPOS>SUBSTRUCTURE
     1 LIG         1 TEMP              0 ****  ****    0 ROOT
