@<TRIPOS>MOLECULE
LIG
   27    27     1     0     0
SMALL
bcc


@<TRIPOS>ATOM
      1 N           -2.0800    -0.3810     1.1490 n          1 LIG      -0.467100
      2 C           -2.8000     0.1440     0.1080 cc         1 LIG       0.138400
      3 C1          -4.2800     0.2440     0.3650 c3         1 LIG      -0.085900
      4 C2          -2.1660     0.5210    -1.0150 cd         1 LIG      -0.256500
      5 Br          -3.0100     1.2580    -2.5150 br         1 LIG      -0.014700
      6 C3          -0.6730     0.3600    -1.0800 c          1 LIG       0.730700
      7 O           -0.0530     0.7920    -2.0530 o          1 LIG      -0.590500
      8 N1          -0.0550    -0.2760    -0.0060 n          1 LIG      -0.481400
      9 C4           1.4090    -0.4850    -0.0210 c3         1 LIG       0.111700
     10 C5           1.8660    -1.3160    -1.2260 c3         1 LIG      -0.111100
     11 C6           2.1660     0.8520     0.1180 c3         1 LIG      -0.095400
     12 C7           3.6580     0.6780     0.3620 c3         1 LIG      -0.093100
     13 C8          -0.7330    -0.5990     1.1550 c          1 LIG       0.808500
     14 O1          -0.2160    -1.0560     2.1730 o          1 LIG      -0.637500
     15 H           -2.5470    -0.6460     2.0100 hn         1 LIG       0.354500
     16 H1          -4.4670     0.8800     1.2370 hc         1 LIG       0.073700
     17 H2          -4.6930    -0.7500     0.5720 hc         1 LIG       0.073700
     18 H3          -4.8480     0.6620    -0.4690 hc         1 LIG       0.073700
     19 H4           1.6680    -1.0870     0.8590 h1         1 LIG       0.087700
     20 H5           2.8900    -1.6760    -1.0850 hc         1 LIG       0.051033
     21 H6           1.2240    -2.1940    -1.3570 hc         1 LIG       0.051033
     22 H7           1.8480    -0.7440    -2.1590 hc         1 LIG       0.051033
     23 H8           1.7420     1.4170     0.9580 hc         1 LIG       0.060200
     24 H9           2.0260     1.4730    -0.7740 hc         1 LIG       0.060200
     25 H10          3.8430     0.0500     1.2400 hc         1 LIG       0.036367
     26 H11          4.1550     0.2250    -0.5000 hc         1 LIG       0.036367
     27 H12          4.1250     1.6520     0.5400 hc         1 LIG       0.036367
@<TRIPOS>BOND
     1     1     2 1   
     2     2     3 1   
     3     2     4 2   
     4     4     5 1   
     5     4     6 1   
     6     6     7 2   
     7     6     8 1   
     8     8     9 1   
     9     9    10 1   
    10     9    11 1   
    11    11    12 1   
    12     8    13 1   
    13    13    14 2   
    14    13     1 1   
    15     1    15 1   
    16     3    16 1   
    17     3    17 1   
    18     3    18 1   
    19     9    19 1   
    20    10    20 1   
    21    10    21 1   
    22    10    22 1   
    23    11    23 1   
    24    11    24 1   
    25    12    25 1   
    26    12    26 1   
    27    12    27 1   
@<TRIPOS>SUBSTRUCTURE
     1 LIG         1 TEMP              0 ****  ****    0 ROOT
