@<TRIPOS>MOLECULE
LIG
    5     4     1     0     0
SMALL
bcc


@<TRIPOS>ATOM
      1 F           -0.0070    -0.9580    -1.0240 f          1 LIG      -0.184300
      2 C           -0.0030    -0.0730     0.0050 c3         1 LIG       0.607400
      3 F1          -0.0660    -0.8050     1.1470 f          1 LIG      -0.184300
      4 Cl          -1.4200     0.9750    -0.1070 cl         1 LIG      -0.119400
      5 Cl1          1.4960     0.8610    -0.0210 cl         1 LIG      -0.119400
@<TRIPOS>BOND
     1     1     2 1   
     2     2     3 1   
     3     2     4 1   
     4     2     5 1   
@<TRIPOS>SUBSTRUCTURE
     1 LIG         1 TEMP              0 ****  ****    0 ROOT
