@<TRIPOS>MOLECULE
LIG
    3     2     1     0     0
SMALL
bcc


@<TRIPOS>ATOM
      1 O           -1.1500    -0.2930     0.0000 o          1 LIG      -0.543700
      2 N           -0.0070     0.5560     0.0000 n2         1 LIG       0.087400
      3 O1           1.1580    -0.2630     0.0000 o          1 LIG      -0.543700
@<TRIPOS>BOND
     1     1     2 2   
     2     2     3 2   
@<TRIPOS>SUBSTRUCTURE
     1 LIG         1 TEMP              0 ****  ****    0 ROOT
