@<TRIPOS>MOLECULE
LIG
   18    17     1     0     0
SMALL
bcc


@<TRIPOS>ATOM
      1 C           -1.7520    -1.2520     0.2780 c3         1 LIG      -0.107100
      2 C1          -1.0170     0.0800     0.3060 c3         1 LIG       0.211100
      3 O            0.2430    -0.0960    -0.3250 os         1 LIG      -0.589200
      4 P            1.5460     0.2040     0.6030 p5         1 LIG       1.341600
      5 O1           1.5740     1.6810     0.9150 o          1 LIG      -0.867500
      6 O2           1.6070    -0.8450     1.6860 o          1 LIG      -0.867500
      7 C2           2.8410    -0.1480    -0.6080 c3         1 LIG      -0.350300
      8 C3          -1.7830     1.1510    -0.4560 c3         1 LIG      -0.107100
      9 H           -1.1770    -2.0150     0.8130 hc         1 LIG       0.023700
     10 H1          -2.7400    -1.1710     0.7410 hc         1 LIG       0.023700
     11 H2          -1.8730    -1.6130    -0.7500 hc         1 LIG       0.023700
     12 H3          -0.8920     0.3990     1.3470 h1         1 LIG       0.033700
     13 H4           2.7660    -1.1840    -0.9520 hc         1 LIG       0.053033
     14 H5           3.8240     0.0020    -0.1560 hc         1 LIG       0.053033
     15 H6           2.7430     0.5160    -1.4710 hc         1 LIG       0.053033
     16 H7          -1.9060     0.8750    -1.5090 hc         1 LIG       0.023700
     17 H8          -1.2310     2.0970    -0.4420 hc         1 LIG       0.023700
     18 H9          -2.7720     1.3190    -0.0190 hc         1 LIG       0.023700
@<TRIPOS>BOND
     1     1     2 1   
     2     2     3 1   
     3     3     4 1   
     4     4     5 1   
     5     4     6 1   
     6     4     7 1   
     7     2     8 1   
     8     1     9 1   
     9     1    10 1   
    10     1    11 1   
    11     2    12 1   
    12     7    13 1   
    13     7    14 1   
    14     7    15 1   
    15     8    16 1   
    16     8    17 1   
    17     8    18 1   
@<TRIPOS>SUBSTRUCTURE
     1 LIG         1 TEMP              0 ****  ****    0 ROOT
