@<TRIPOS>MOLECULE
LIG
   29    29     1     0     0
SMALL
bcc


@<TRIPOS>ATOM
      1 C            3.6240    -1.8260    -0.4900 ca         1 LIG      -0.120000
      2 C1           2.4730    -2.4830    -0.0610 ca         1 LIG      -0.129500
      3 C2           1.4620    -1.7700     0.5880 ca         1 LIG      -0.106500
      4 C3           1.5930    -0.3940     0.8010 ca         1 LIG       0.148900
      5 S            0.3040     0.4930     1.6450 ss         1 LIG      -0.490300
      6 P           -0.5710     1.4430    -0.0430 p5         1 LIG       0.909000
      7 S1           0.4070     2.8720    -0.9560 s          1 LIG      -0.500000
      8 O           -1.0090     0.2970    -1.1160 os         1 LIG      -0.525200
      9 C4          -1.9150    -0.7380    -0.7820 c3         1 LIG       0.157400
     10 C5          -1.7280    -1.8780    -1.7620 c3         1 LIG      -0.112100
     11 C6          -2.2110     2.0140     0.5440 c3         1 LIG      -0.392600
     12 C7          -2.1690     3.1520     1.5490 c3         1 LIG      -0.102100
     13 C8           2.7610     0.2530     0.3900 ca         1 LIG      -0.106500
     14 C9           3.7700    -0.4600    -0.2610 ca         1 LIG      -0.129500
     15 H            4.4110    -2.3790    -0.9970 ha         1 LIG       0.134000
     16 H1           2.3630    -3.5510    -0.2300 ha         1 LIG       0.138000
     17 H2           0.5770    -2.3030     0.9260 ha         1 LIG       0.160000
     18 H3          -2.9370    -0.3530    -0.8570 h1         1 LIG       0.053200
     19 H4          -1.7470    -1.0910     0.2380 h1         1 LIG       0.053200
     20 H5          -1.9010    -1.5360    -2.7880 hc         1 LIG       0.058367
     21 H6          -2.4180    -2.6980    -1.5430 hc         1 LIG       0.058367
     22 H7          -0.7020    -2.2580    -1.7230 hc         1 LIG       0.058367
     23 H8          -2.7330     1.1680     1.0020 hc         1 LIG       0.139200
     24 H9          -2.7960     2.3240    -0.3290 hc         1 LIG       0.139200
     25 H10         -1.5880     2.8750     2.4330 hc         1 LIG       0.070700
     26 H11         -3.1820     3.4120     1.8710 hc         1 LIG       0.070700
     27 H12         -1.7120     4.0460     1.1150 hc         1 LIG       0.070700
     28 H13          2.9010     1.3170     0.5670 ha         1 LIG       0.160000
     29 H14          4.6700     0.0550    -0.5890 ha         1 LIG       0.138000
@<TRIPOS>BOND
     1     1     2 ar  
     2     2     3 ar  
     3     3     4 ar  
     4     4     5 1   
     5     5     6 1   
     6     6     7 2   
     7     6     8 1   
     8     8     9 1   
     9     9    10 1   
    10     6    11 1   
    11    11    12 1   
    12     4    13 ar  
    13    13    14 ar  
    14    14     1 ar  
    15     1    15 1   
    16     2    16 1   
    17     3    17 1   
    18     9    18 1   
    19     9    19 1   
    20    10    20 1   
    21    10    21 1   
    22    10    22 1   
    23    11    23 1   
    24    11    24 1   
    25    12    25 1   
    26    12    26 1   
    27    12    27 1   
    28    13    28 1   
    29    14    29 1   
@<TRIPOS>SUBSTRUCTURE
     1 LIG         1 TEMP              0 ****  ****    0 ROOT
