@<TRIPOS>MOLECULE
LIG
    6     5     1     0     0
SMALL
bcc


@<TRIPOS>ATOM
      1 C            0.5640     0.3490     0.4930 c2         1 LIG      -0.070600
      2 Cl           2.1080    -0.3910     0.5020 cl         1 LIG      -0.095400
      3 C1          -0.5640    -0.3490     0.3930 c2         1 LIG      -0.070600
      4 Cl1         -2.1080     0.3910     0.3840 cl         1 LIG      -0.095400
      5 H            0.6160     1.4270     0.5750 h4         1 LIG       0.165000
      6 H1          -0.6160    -1.4270     0.3100 h4         1 LIG       0.165000
@<TRIPOS>BOND
     1     1     2 1   
     2     1     3 2   
     3     3     4 1   
     4     1     5 1   
     5     3     6 1   
@<TRIPOS>SUBSTRUCTURE
     1 LIG         1 TEMP              0 ****  ****    0 ROOT
