@<TRIPOS>MOLECULE
LIG
   35    35     1     0     0
SMALL
bcc


@<TRIPOS>ATOM
      1 N            2.4290     0.2630    -0.5050 nh         1 LIG      -0.825900
      2 C            1.1280     0.5150    -0.0970 ca         1 LIG       0.932900
      3 N1           0.9090     1.7320     0.3730 nb         1 LIG      -0.837000
      4 C1          -0.3440     1.9580     0.7500 ca         1 LIG       0.912300
      5 O           -0.6950     3.1950     1.2510 os         1 LIG      -0.416100
      6 C2           0.3820     4.1220     1.2660 c3         1 LIG       0.125700
      7 N2          -1.3430     1.0910     0.6960 nb         1 LIG      -0.837000
      8 C3          -1.0190    -0.0960     0.2140 ca         1 LIG       0.932900
      9 N3          -1.9700    -1.0990     0.1110 nh         1 LIG      -0.825900
     10 C4          -3.3520    -0.6980    -0.1190 c3         1 LIG       0.212500
     11 C5          -3.5490    -0.2310    -1.5620 c3         1 LIG      -0.114350
     12 C6          -4.2480    -1.9030     0.1680 c3         1 LIG      -0.114350
     13 N4           0.1980    -0.4260    -0.1960 nb         1 LIG      -0.852000
     14 C7           2.9240    -1.1020    -0.3730 c3         1 LIG       0.212500
     15 C8           4.2050    -1.2230    -1.2000 c3         1 LIG      -0.114350
     16 C9           3.2120    -1.4360     1.0910 c3         1 LIG      -0.114350
     17 H            3.0190     0.9870    -0.1120 hn         1 LIG       0.429300
     18 H1           0.0030     5.0670     1.6670 h1         1 LIG       0.052700
     19 H2           0.7530     4.3180     0.2540 h1         1 LIG       0.052700
     20 H3           1.1900     3.7840     1.9230 h1         1 LIG       0.052700
     21 H4          -1.6000    -1.8020    -0.5190 hn         1 LIG       0.429300
     22 H5          -3.6500     0.1020     0.5700 h1         1 LIG       0.087200
     23 H6          -2.9470     0.6580    -1.7780 hc         1 LIG       0.044200
     24 H7          -4.5980     0.0250    -1.7470 hc         1 LIG       0.044200
     25 H8          -3.2580    -1.0090    -2.2760 hc         1 LIG       0.044200
     26 H9          -4.0090    -2.7460    -0.4890 hc         1 LIG       0.044200
     27 H10         -4.1200    -2.2430     1.2020 hc         1 LIG       0.044200
     28 H11         -5.3040    -1.6470     0.0250 hc         1 LIG       0.044200
     29 H12          2.2040    -1.8230    -0.7790 h1         1 LIG       0.087200
     30 H13          4.6090    -2.2390    -1.1470 hc         1 LIG       0.044200
     31 H14          4.9760    -0.5300    -0.8470 hc         1 LIG       0.044200
     32 H15          4.0090    -0.9910    -2.2530 hc         1 LIG       0.044200
     33 H16          3.6290    -2.4450     1.1840 hc         1 LIG       0.044200
     34 H17          3.9270    -0.7310     1.5280 hc         1 LIG       0.044200
     35 H18          2.2990    -1.3970     1.6950 hc         1 LIG       0.044200
@<TRIPOS>BOND
     1     1     2 1   
     2     2     3 ar  
     3     3     4 ar  
     4     4     5 1   
     5     5     6 1   
     6     4     7 ar  
     7     7     8 ar  
     8     8     9 1   
     9     9    10 1   
    10    10    11 1   
    11    10    12 1   
    12     8    13 ar  
    13     1    14 1   
    14    14    15 1   
    15    14    16 1   
    16    13     2 ar  
    17     1    17 1   
    18     6    18 1   
    19     6    19 1   
    20     6    20 1   
    21     9    21 1   
    22    10    22 1   
    23    11    23 1   
    24    11    24 1   
    25    11    25 1   
    26    12    26 1   
    27    12    27 1   
    28    12    28 1   
    29    14    29 1   
    30    15    30 1   
    31    15    31 1   
    32    15    32 1   
    33    16    33 1   
    34    16    34 1   
    35    16    35 1   
@<TRIPOS>SUBSTRUCTURE
     1 LIG         1 TEMP              0 ****  ****    0 ROOT
