@<TRIPOS>MOLECULE
LIG
   21    21     1     0     0
SMALL
bcc


@<TRIPOS>ATOM
      1 C            0.2400    -1.3710     0.0840 ca         1 LIG      -0.136000
      2 C1          -1.0790    -0.9010     0.0400 ca         1 LIG      -0.071300
      3 C2          -2.2270    -1.8660     0.0010 c3         1 LIG      -0.053800
      4 C3          -1.3100     0.4780    -0.0300 ca         1 LIG      -0.136000
      5 C4          -0.2430     1.3850    -0.0250 ca         1 LIG      -0.071300
      6 C5          -0.5000     2.8590    -0.1350 c3         1 LIG      -0.053800
      7 C6           1.0680     0.8960     0.0190 ca         1 LIG      -0.136000
      8 C7           1.3190    -0.4790     0.0900 ca         1 LIG      -0.071300
      9 C8           2.7280    -0.9940     0.1040 c3         1 LIG      -0.053800
     10 H            0.4280    -2.4430     0.1120 ha         1 LIG       0.130000
     11 H1          -3.1180    -1.4320     0.4670 hc         1 LIG       0.043033
     12 H2          -1.9870    -2.7820     0.5500 hc         1 LIG       0.043033
     13 H3          -2.4610    -2.1270    -1.0360 hc         1 LIG       0.043033
     14 H4          -2.3310     0.8490    -0.0910 ha         1 LIG       0.130000
     15 H5          -0.5310     3.1560    -1.1870 hc         1 LIG       0.043033
     16 H6           0.2840     3.4310     0.3720 hc         1 LIG       0.043033
     17 H7          -1.4520     3.1260     0.3370 hc         1 LIG       0.043033
     18 H8           1.9030     1.5950    -0.0030 ha         1 LIG       0.130000
     19 H9           2.7930    -1.9410     0.6500 hc         1 LIG       0.043033
     20 H10          3.3980    -0.2860     0.6030 hc         1 LIG       0.043033
     21 H11          3.0790    -1.1510    -0.9210 hc         1 LIG       0.043033
@<TRIPOS>BOND
     1     1     2 ar  
     2     2     3 1   
     3     2     4 ar  
     4     4     5 ar  
     5     5     6 1   
     6     5     7 ar  
     7     7     8 ar  
     8     8     9 1   
     9     8     1 ar  
    10     1    10 1   
    11     3    11 1   
    12     3    12 1   
    13     3    13 1   
    14     4    14 1   
    15     6    15 1   
    16     6    16 1   
    17     6    17 1   
    18     7    18 1   
    19     9    19 1   
    20     9    20 1   
    21     9    21 1   
@<TRIPOS>SUBSTRUCTURE
     1 LIG         1 TEMP              0 ****  ****    0 ROOT
